MODEL 1
REMARK VINA RESULT:      -5.2      0.000      0.000
REMARK  Name = Aplyronine A_conf2
REMARK  45 active torsions:
REMARK  status: ('A' for Active; 'I' for Inactive)
REMARK    1  A    between atoms: C_1  and  C_2
REMARK    2  A    between atoms: C_5  and  O_75
REMARK    3  A    between atoms: C_6  and  C_74
REMARK    4  A    between atoms: C_9  and  C_73
REMARK    5  A    between atoms: C_11  and  O_71
REMARK    6  A    between atoms: C_15  and  C_39
REMARK    7  A    between atoms: C_24  and  O_29
REMARK    8  A    between atoms: C_25  and  C_28
REMARK    9  A    between atoms: C_26  and  O_27
REMARK   10  A    between atoms: O_29  and  C_30
REMARK   11  A    between atoms: C_30  and  C_32
REMARK   12  A    between atoms: C_32  and  C_33
REMARK   13  A    between atoms: C_32  and  N_36
REMARK   14  A    between atoms: C_33  and  O_34
REMARK   15  A    between atoms: O_34  and  C_35
REMARK   16  A    between atoms: N_36  and  C_37
REMARK   17  A    between atoms: N_36  and  C_38
REMARK   18  A    between atoms: C_39  and  C_40
REMARK   19  A    between atoms: C_39  and  C_41
REMARK   20  A    between atoms: C_41  and  C_42
REMARK   21  A    between atoms: C_41  and  O_70
REMARK   22  A    between atoms: C_42  and  C_43
REMARK   23  A    between atoms: C_42  and  C_44
REMARK   24  A    between atoms: C_44  and  C_45
REMARK   25  A    between atoms: C_45  and  C_46
REMARK   26  A    between atoms: C_46  and  C_47
REMARK   27  A    between atoms: C_46  and  O_62
REMARK   28  A    between atoms: C_47  and  C_48
REMARK   29  A    between atoms: C_47  and  C_49
REMARK   30  A    between atoms: C_49  and  C_50
REMARK   31  A    between atoms: C_49  and  O_58
REMARK   32  A    between atoms: C_50  and  C_51
REMARK   33  A    between atoms: C_50  and  C_52
REMARK   34  A    between atoms: C_53  and  N_54
REMARK   35  A    between atoms: N_54  and  C_55
REMARK   36  A    between atoms: O_58  and  C_59
REMARK   37  A    between atoms: C_59  and  C_61
REMARK   38  A    between atoms: O_62  and  C_63
REMARK   39  A    between atoms: C_63  and  C_65
REMARK   40  A    between atoms: C_65  and  C_66
REMARK   41  A    between atoms: C_65  and  N_67
REMARK   42  A    between atoms: N_67  and  C_68
REMARK   43  A    between atoms: N_67  and  C_69
REMARK   44  A    between atoms: O_71  and  C_72
REMARK   45  A    between atoms: O_75  and  C_76
REMARK                            x       y       z     vdW  Elec       q    Type
REMARK                         _______ _______ _______ _____ _____    ______ ____
ROOT
ATOM      1  C   UNL     1     157.554 159.253 185.607  0.00  0.00    -0.017 C 
ATOM      2  C   UNL     1     158.663 160.230 186.069  0.00  0.00    -0.045 C 
ATOM      3  C   UNL     1     158.135 161.574 186.588  0.00  0.00    -0.022 C 
ATOM      4  C   UNL     1     159.238 162.495 187.152  0.00  0.00    +0.079 C 
ATOM      5  C   UNL     1     159.905 163.343 186.064  0.00  0.00    -0.048 C 
ATOM      6  C   UNL     1     159.438 164.574 185.759  0.00  0.00    -0.082 C 
ATOM      7  C   UNL     1     159.952 165.581 184.766  0.00  0.00    -0.032 C 
ATOM      8  C   UNL     1     159.013 165.837 183.565  0.00  0.00    -0.038 C 
ATOM      9  C   UNL     1     157.546 166.155 183.940  0.00  0.00    -0.020 C 
ATOM     10  C   UNL     1     157.377 167.320 184.930  0.00  0.00    +0.077 C 
ATOM     11  C   UNL     1     155.923 167.467 185.309  0.00  0.00    -0.059 C 
ATOM     12  C   UNL     1     155.364 166.760 186.308  0.00  0.00    -0.082 C 
ATOM     13  C   UNL     1     153.931 166.877 186.762  0.00  0.00    +0.003 C 
ATOM     14  C   UNL     1     153.805 166.870 188.306  0.00  0.00    +0.112 C 
ATOM     15  O   UNL     1     154.073 165.517 188.757  0.00  0.00    -0.458 OA
ATOM     16  C   UNL     1     155.246 165.259 189.376  0.00  0.00    +0.332 C 
ATOM     17  O   UNL     1     156.091 166.076 189.706  0.00  0.00    -0.246 OA
ATOM     18  C   UNL     1     155.437 163.803 189.559  0.00  0.00    +0.022 C 
ATOM     19  C   UNL     1     154.522 162.870 189.255  0.00  0.00    -0.055 C 
ATOM     20  C   UNL     1     154.798 161.454 189.355  0.00  0.00    -0.065 C 
ATOM     21  C   UNL     1     153.913 160.508 189.006  0.00  0.00    -0.081 C 
ATOM     22  C   UNL     1     154.236 159.035 189.005  0.00  0.00    +0.003 C 
ATOM     23  C   UNL     1     154.211 158.335 187.623  0.00  0.00    +0.111 C 
ATOM     24  C   UNL     1     155.097 158.894 186.464  0.00  0.00    +0.020 C 
ATOM     25  C   UNL     1     156.619 158.685 186.723  0.00  0.00    +0.064 C 
ATOM     26  H   UNL     1     156.960 159.770 184.847  0.00  0.00    +0.032 HD
ATOM     27  H   UNL     1     159.283 159.750 186.836  0.00  0.00    +0.027 HD
ATOM     28  H   UNL     1     159.324 160.422 185.218  0.00  0.00    +0.027 HD
ATOM     29  H   UNL     1     157.584 162.087 185.788  0.00  0.00    +0.029 HD
ATOM     30  H   UNL     1     157.400 161.407 187.381  0.00  0.00    +0.029 HD
ATOM     31  H   UNL     1     159.985 161.889 187.681  0.00  0.00    +0.064 HD
ATOM     32  H   UNL     1     158.566 164.919 186.317  0.00  0.00    +0.057 HD
ATOM     33  H   UNL     1     160.111 166.524 185.304  0.00  0.00    +0.031 HD
ATOM     34  H   UNL     1     160.942 165.306 184.388  0.00  0.00    +0.031 HD
ATOM     35  H   UNL     1     159.418 166.702 183.022  0.00  0.00    +0.030 HD
ATOM     36  H   UNL     1     157.073 165.250 184.345  0.00  0.00    +0.030 HD
ATOM     37  H   UNL     1     157.009 166.397 183.012  0.00  0.00    +0.030 HD
ATOM     38  H   UNL     1     157.969 167.137 185.834  0.00  0.00    +0.064 HD
ATOM     39  H   UNL     1     155.334 168.179 184.737  0.00  0.00    +0.059 HD
ATOM     40  H   UNL     1     155.984 166.034 186.831  0.00  0.00    +0.057 HD
ATOM     41  H   UNL     1     153.493 167.798 186.356  0.00  0.00    +0.034 HD
ATOM     42  H   UNL     1     153.385 166.024 186.339  0.00  0.00    +0.034 HD
ATOM     43  H   UNL     1     154.535 167.578 188.716  0.00  0.00    +0.074 HD
ATOM     44  H   UNL     1     156.420 163.534 189.925  0.00  0.00    +0.069 HD
ATOM     45  H   UNL     1     153.544 163.154 188.875  0.00  0.00    +0.062 HD
ATOM     46  H   UNL     1     155.800 161.160 189.667  0.00  0.00    +0.061 HD
ATOM     47  H   UNL     1     152.915 160.776 188.664  0.00  0.00    +0.057 HD
ATOM     48  H   UNL     1     155.190 158.849 189.507  0.00  0.00    +0.034 HD
ATOM     49  H   UNL     1     153.477 158.557 189.640  0.00  0.00    +0.034 HD
ATOM     50  H   UNL     1     154.523 157.299 187.815  0.00  0.00    +0.074 HD
ATOM     51  H   UNL     1     154.864 158.283 185.581  0.00  0.00    +0.036 HD
ATOM     52  H   UNL     1     156.761 157.597 186.782  0.00  0.00    +0.060 HD
ENDROOT
BRANCH   1  53
ATOM     53  C   UNL     1     158.207 158.077 184.857  0.00  0.00    -0.060 C 
ATOM     54  H   UNL     1     157.679 157.138 185.055  0.00  0.00    +0.023 HD
ATOM     55  H   UNL     1     158.203 158.254 183.776  0.00  0.00    +0.023 HD
ATOM     56  H   UNL     1     159.251 157.952 185.164  0.00  0.00    +0.023 HD
ENDBRANCH   1  53
BRANCH   5  57
ATOM     57  C   UNL     1     161.110 162.720 185.412  0.00  0.00    -0.041 C 
ATOM     58  H   UNL     1     161.532 163.398 184.661  0.00  0.00    +0.028 HD
ATOM     59  H   UNL     1     161.881 162.507 186.157  0.00  0.00    +0.028 HD
ATOM     60  H   UNL     1     160.885 161.788 184.895  0.00  0.00    +0.028 HD
ENDBRANCH   5  57
BRANCH  24  61
ATOM     61  C   UNL     1     154.707 160.316 186.039  0.00  0.00    -0.057 C 
ATOM     62  H   UNL     1     155.414 160.709 185.300  0.00  0.00    +0.023 HD
ATOM     63  H   UNL     1     154.702 161.014 186.877  0.00  0.00    +0.023 HD
ATOM     64  H   UNL     1     153.726 160.342 185.555  0.00  0.00    +0.023 HD
ENDBRANCH  24  61
BRANCH   8  65
ATOM     65  C   UNL     1     159.043 164.646 182.598  0.00  0.00    -0.062 C 
ATOM     66  H   UNL     1     159.848 164.760 181.864  0.00  0.00    +0.023 HD
ATOM     67  H   UNL     1     159.197 163.701 183.128  0.00  0.00    +0.023 HD
ATOM     68  H   UNL     1     158.100 164.573 182.047  0.00  0.00    +0.023 HD
ENDBRANCH   8  65
BRANCH  14  69
ATOM     69  C   UNL     1     152.358 167.252 188.768  0.00  0.00    +0.020 C 
ATOM     70  H   UNL     1     152.083 168.177 188.245  0.00  0.00    +0.036 HD
BRANCH  69  71
ATOM     71  C   UNL     1     151.358 166.157 188.379  0.00  0.00    -0.057 C 
ATOM     72  H   UNL     1     151.587 165.711 187.410  0.00  0.00    +0.023 HD
ATOM     73  H   UNL     1     150.334 166.541 188.334  0.00  0.00    +0.023 HD
ATOM     74  H   UNL     1     151.373 165.336 189.104  0.00  0.00    +0.023 HD
ENDBRANCH  69  71
BRANCH  69  75
ATOM     75  C   UNL     1     152.380 167.575 190.290  0.00  0.00    +0.064 C 
ATOM     76  H   UNL     1     153.422 167.674 190.616  0.00  0.00    +0.060 HD
BRANCH  75  77
ATOM     77  C   UNL     1     151.639 166.636 191.284  0.00  0.00    -0.017 C 
ATOM     78  H   UNL     1     150.765 166.241 190.743  0.00  0.00    +0.032 HD
BRANCH  77  79
ATOM     79  C   UNL     1     152.444 165.394 191.686  0.00  0.00    -0.060 C 
ATOM     80  H   UNL     1     152.129 164.524 191.099  0.00  0.00    +0.023 HD
ATOM     81  H   UNL     1     153.512 165.533 191.495  0.00  0.00    +0.023 HD
ATOM     82  H   UNL     1     152.314 165.132 192.737  0.00  0.00    +0.023 HD
ENDBRANCH  77  79
BRANCH  77  83
ATOM     83  C   UNL     1     151.053 167.431 192.472  0.00  0.00    -0.045 C 
ATOM     84  H   UNL     1     150.980 168.483 192.165  0.00  0.00    +0.027 HD
ATOM     85  H   UNL     1     151.736 167.404 193.322  0.00  0.00    +0.027 HD
BRANCH  83  86
ATOM     86  C   UNL     1     149.676 166.947 192.931  0.00  0.00    -0.015 C 
ATOM     87  H   UNL     1     149.530 167.195 193.991  0.00  0.00    +0.030 HD
ATOM     88  H   UNL     1     149.636 165.851 192.887  0.00  0.00    +0.030 HD
BRANCH  86  89
ATOM     89  C   UNL     1     148.487 167.476 192.102  0.00  0.00    +0.109 C 
ATOM     90  H   UNL     1     147.713 167.780 192.818  0.00  0.00    +0.074 HD
BRANCH  89  91
ATOM     91  C   UNL     1     147.836 166.473 191.112  0.00  0.00    +0.031 C 
ATOM     92  H   UNL     1     148.236 165.481 191.354  0.00  0.00    +0.037 HD
BRANCH  91  93
ATOM     93  C   UNL     1     148.194 166.794 189.653  0.00  0.00    -0.056 C 
ATOM     94  H   UNL     1     149.251 167.062 189.553  0.00  0.00    +0.023 HD
ATOM     95  H   UNL     1     147.600 167.630 189.271  0.00  0.00    +0.023 HD
ATOM     96  H   UNL     1     148.004 165.946 188.988  0.00  0.00    +0.023 HD
ENDBRANCH  91  93
BRANCH  91  97
ATOM     97  C   UNL     1     146.283 166.430 191.285  0.00  0.00    +0.115 C 
ATOM     98  H   UNL     1     145.953 167.446 191.535  0.00  0.00    +0.074 HD
BRANCH  97  99
ATOM     99  C   UNL     1     145.520 165.983 190.002  0.00  0.00    +0.013 C 
ATOM    100  H   UNL     1     146.125 166.234 189.125  0.00  0.00    +0.038 HD
BRANCH  99 101
ATOM    101  C   UNL     1     144.199 166.750 189.847  0.00  0.00    -0.056 C 
ATOM    102  H   UNL     1     144.328 167.829 189.991  0.00  0.00    +0.024 HD
ATOM    103  H   UNL     1     143.462 166.405 190.584  0.00  0.00    +0.024 HD
ATOM    104  H   UNL     1     143.772 166.588 188.853  0.00  0.00    +0.024 HD
ENDBRANCH  99 101
BRANCH  99 105
ATOM    105  C   UNL     1     145.210 164.496 190.001  0.00  0.00    -0.064 C 
ATOM    106  C   UNL     1     144.425 163.898 189.096  0.00  0.00    -0.005 C 
ATOM    107  H   UNL     1     145.667 163.938 190.813  0.00  0.00    +0.059 HD
ATOM    108  H   UNL     1     143.988 164.503 188.300  0.00  0.00    +0.078 HD
BRANCH 106 109
ATOM    109  N   UNL     1     144.085 162.555 189.042  0.00  0.00    -0.284 N 
ATOM    110  C   UNL     1     144.959 161.510 188.768  0.00  0.00    +0.206 C 
ATOM    111  O   UNL     1     144.666 160.321 188.705  0.00  0.00    -0.279 OA
ATOM    112  H   UNL     1     145.999 161.828 188.608  0.00  0.00    +0.126 HD
BRANCH 109 113
ATOM    113  C   UNL     1     142.683 162.216 189.264  0.00  0.00    +0.007 C 
ATOM    114  H   UNL     1     142.512 161.786 190.253  0.00  0.00    +0.043 HD
ATOM    115  H   UNL     1     142.073 163.118 189.163  0.00  0.00    +0.043 HD
ATOM    116  H   UNL     1     142.393 161.486 188.504  0.00  0.00    +0.043 HD
ENDBRANCH 109 113
ENDBRANCH 106 109
ENDBRANCH  99 105
ENDBRANCH  97  99
BRANCH  97 117
ATOM    117  O   UNL     1     145.947 165.513 192.354  0.00  0.00    -0.461 OA
BRANCH 117 118
ATOM    118  C   UNL     1     145.305 166.021 193.442  0.00  0.00    +0.304 C 
ATOM    119  O   UNL     1     144.571 166.999 193.443  0.00  0.00    -0.251 OA
BRANCH 118 120
ATOM    120  C   UNL     1     145.609 165.190 194.649  0.00  0.00    +0.033 C 
ATOM    121  H   UNL     1     144.771 164.523 194.859  0.00  0.00    +0.034 HD
ATOM    122  H   UNL     1     146.525 164.616 194.484  0.00  0.00    +0.034 HD
ATOM    123  H   UNL     1     145.761 165.847 195.510  0.00  0.00    +0.034 HD
ENDBRANCH 118 120
ENDBRANCH 117 118
ENDBRANCH  97 117
ENDBRANCH  91  97
ENDBRANCH  89  91
BRANCH  89 124
ATOM    124  O   UNL     1     148.989 168.615 191.362  0.00  0.00    -0.460 OA
BRANCH 124 125
ATOM    125  C   UNL     1     148.281 169.773 191.434  0.00  0.00    +0.324 C 
ATOM    126  O   UNL     1     147.053 169.815 191.430  0.00  0.00    -0.249 OA
BRANCH 125 127
ATOM    127  C   UNL     1     149.156 171.026 191.628  0.00  0.00    +0.105 C 
ATOM    128  H   UNL     1     149.732 171.128 190.697  0.00  0.00    +0.058 HD
BRANCH 127 129
ATOM    129  C   UNL     1     150.182 170.762 192.739  0.00  0.00    -0.039 C 
ATOM    130  H   UNL     1     150.886 171.598 192.840  0.00  0.00    +0.025 HD
ATOM    131  H   UNL     1     149.701 170.591 193.708  0.00  0.00    +0.025 HD
ATOM    132  H   UNL     1     150.773 169.867 192.510  0.00  0.00    +0.025 HD
ENDBRANCH 127 129
BRANCH 127 133
ATOM    133  N   UNL     1     148.472 172.324 191.868  0.00  0.00    -0.296 NA
BRANCH 133 134
ATOM    134  C   UNL     1     148.754 173.363 190.887  0.00  0.00    -0.012 C 
ATOM    135  H   UNL     1     147.851 173.913 190.599  0.00  0.00    +0.039 HD
ATOM    136  H   UNL     1     149.224 172.972 189.982  0.00  0.00    +0.039 HD
ATOM    137  H   UNL     1     149.435 174.110 191.315  0.00  0.00    +0.039 HD
ENDBRANCH 133 134
BRANCH 133 138
ATOM    138  C   UNL     1     148.608 172.819 193.233  0.00  0.00    -0.012 C 
ATOM    139  H   UNL     1     149.351 172.237 193.790  0.00  0.00    +0.039 HD
ATOM    140  H   UNL     1     147.661 172.701 193.772  0.00  0.00    +0.039 HD
ATOM    141  H   UNL     1     148.888 173.874 193.287  0.00  0.00    +0.039 HD
ENDBRANCH 133 138
ENDBRANCH 127 133
ENDBRANCH 125 127
ENDBRANCH 124 125
ENDBRANCH  89 124
ENDBRANCH  86  89
ENDBRANCH  83  86
ENDBRANCH  77  83
ENDBRANCH  75  77
BRANCH  75 142
ATOM    142  O   UNL     1     151.801 168.882 190.453  0.00  0.00    -0.391 OA
ATOM    143  H   UNL     1     151.595 169.244 189.575  0.00  0.00    +0.210 HD
ENDBRANCH  75 142
ENDBRANCH  69  75
ENDBRANCH  14  69
BRANCH  25 144
ATOM    144  O   UNL     1     156.987 159.167 188.006  0.00  0.00    -0.391 OA
ATOM    145  H   UNL     1     157.927 159.416 187.973  0.00  0.00    +0.210 HD
ENDBRANCH  25 144
BRANCH  23 146
ATOM    146  O   UNL     1     152.816 158.309 187.214  0.00  0.00    -0.460 OA
BRANCH 146 147
ATOM    147  C   UNL     1     152.026 157.330 187.731  0.00  0.00    +0.327 C 
ATOM    148  O   UNL     1     152.444 156.226 188.072  0.00  0.00    -0.249 OA
BRANCH 147 149
ATOM    149  C   UNL     1     150.549 157.742 187.873  0.00  0.00    +0.131 C 
ATOM    150  H   UNL     1     150.202 157.826 186.833  0.00  0.00    +0.060 HD
BRANCH 149 151
ATOM    151  C   UNL     1     150.518 159.151 188.508  0.00  0.00    +0.073 C 
ATOM    152  H   UNL     1     150.046 159.125 189.499  0.00  0.00    +0.058 HD
ATOM    153  H   UNL     1     151.542 159.517 188.649  0.00  0.00    +0.058 HD
BRANCH 151 154
ATOM    154  O   UNL     1     149.830 160.077 187.661  0.00  0.00    -0.381 OA
BRANCH 154 155
ATOM    155  C   UNL     1     150.596 161.254 187.437  0.00  0.00    +0.037 C 
ATOM    156  H   UNL     1     150.764 161.408 186.368  0.00  0.00    +0.052 HD
ATOM    157  H   UNL     1     151.552 161.189 187.965  0.00  0.00    +0.052 HD
ATOM    158  H   UNL     1     150.038 162.107 187.830  0.00  0.00    +0.052 HD
ENDBRANCH 154 155
ENDBRANCH 151 154
ENDBRANCH 149 151
BRANCH 149 159
ATOM    159  N   UNL     1     149.724 156.671 188.522  0.00  0.00    -0.294 NA
BRANCH 159 160
ATOM    160  C   UNL     1     148.957 155.913 187.533  0.00  0.00    -0.012 C 
ATOM    161  H   UNL     1     148.802 156.460 186.599  0.00  0.00    +0.039 HD
ATOM    162  H   UNL     1     147.974 155.646 187.937  0.00  0.00    +0.039 HD
ATOM    163  H   UNL     1     149.457 154.968 187.302  0.00  0.00    +0.039 HD
ENDBRANCH 159 160
BRANCH 159 164
ATOM    164  C   UNL     1     148.846 157.164 189.579  0.00  0.00    -0.012 C 
ATOM    165  H   UNL     1     148.513 156.331 190.211  0.00  0.00    +0.039 HD
ATOM    166  H   UNL     1     147.952 157.659 189.188  0.00  0.00    +0.039 HD
ATOM    167  H   UNL     1     149.369 157.863 190.239  0.00  0.00    +0.039 HD
ENDBRANCH 159 164
ENDBRANCH 149 159
ENDBRANCH 147 149
ENDBRANCH 146 147
ENDBRANCH  23 146
BRANCH   4 168
ATOM    168  O   UNL     1     158.590 163.339 188.125  0.00  0.00    -0.376 OA
BRANCH 168 169
ATOM    169  C   UNL     1     158.885 162.974 189.468  0.00  0.00    +0.037 C 
ATOM    170  H   UNL     1     158.000 163.101 190.098  0.00  0.00    +0.052 HD
ATOM    171  H   UNL     1     159.247 161.944 189.530  0.00  0.00    +0.052 HD
ATOM    172  H   UNL     1     159.670 163.640 189.837  0.00  0.00    +0.052 HD
ENDBRANCH 168 169
ENDBRANCH   4 168
BRANCH  10 173
ATOM    173  O   UNL     1     157.827 168.522 184.301  0.00  0.00    -0.376 OA
BRANCH 173 174
ATOM    174  C   UNL     1     158.694 169.286 185.131  0.00  0.00    +0.037 C 
ATOM    175  H   UNL     1     158.217 169.396 186.109  0.00  0.00    +0.052 HD
ATOM    176  H   UNL     1     159.651 168.776 185.269  0.00  0.00    +0.052 HD
ATOM    177  H   UNL     1     158.852 170.282 184.709  0.00  0.00    +0.052 HD
ENDBRANCH 173 174
ENDBRANCH  10 173
TORSDOF 45
ENDMDL
MODEL 2
REMARK VINA RESULT:      -5.2      4.329     11.961
REMARK  Name = Aplyronine A_conf2
REMARK  45 active torsions:
REMARK  status: ('A' for Active; 'I' for Inactive)
REMARK    1  A    between atoms: C_1  and  C_2
REMARK    2  A    between atoms: C_5  and  O_75
REMARK    3  A    between atoms: C_6  and  C_74
REMARK    4  A    between atoms: C_9  and  C_73
REMARK    5  A    between atoms: C_11  and  O_71
REMARK    6  A    between atoms: C_15  and  C_39
REMARK    7  A    between atoms: C_24  and  O_29
REMARK    8  A    between atoms: C_25  and  C_28
REMARK    9  A    between atoms: C_26  and  O_27
REMARK   10  A    between atoms: O_29  and  C_30
REMARK   11  A    between atoms: C_30  and  C_32
REMARK   12  A    between atoms: C_32  and  C_33
REMARK   13  A    between atoms: C_32  and  N_36
REMARK   14  A    between atoms: C_33  and  O_34
REMARK   15  A    between atoms: O_34  and  C_35
REMARK   16  A    between atoms: N_36  and  C_37
REMARK   17  A    between atoms: N_36  and  C_38
REMARK   18  A    between atoms: C_39  and  C_40
REMARK   19  A    between atoms: C_39  and  C_41
REMARK   20  A    between atoms: C_41  and  C_42
REMARK   21  A    between atoms: C_41  and  O_70
REMARK   22  A    between atoms: C_42  and  C_43
REMARK   23  A    between atoms: C_42  and  C_44
REMARK   24  A    between atoms: C_44  and  C_45
REMARK   25  A    between atoms: C_45  and  C_46
REMARK   26  A    between atoms: C_46  and  C_47
REMARK   27  A    between atoms: C_46  and  O_62
REMARK   28  A    between atoms: C_47  and  C_48
REMARK   29  A    between atoms: C_47  and  C_49
REMARK   30  A    between atoms: C_49  and  C_50
REMARK   31  A    between atoms: C_49  and  O_58
REMARK   32  A    between atoms: C_50  and  C_51
REMARK   33  A    between atoms: C_50  and  C_52
REMARK   34  A    between atoms: C_53  and  N_54
REMARK   35  A    between atoms: N_54  and  C_55
REMARK   36  A    between atoms: O_58  and  C_59
REMARK   37  A    between atoms: C_59  and  C_61
REMARK   38  A    between atoms: O_62  and  C_63
REMARK   39  A    between atoms: C_63  and  C_65
REMARK   40  A    between atoms: C_65  and  C_66
REMARK   41  A    between atoms: C_65  and  N_67
REMARK   42  A    between atoms: N_67  and  C_68
REMARK   43  A    between atoms: N_67  and  C_69
REMARK   44  A    between atoms: O_71  and  C_72
REMARK   45  A    between atoms: O_75  and  C_76
REMARK                            x       y       z     vdW  Elec       q    Type
REMARK                         _______ _______ _______ _____ _____    ______ ____
ROOT
ATOM      1  C   UNL     1     141.203 165.129 187.627  0.00  0.00    -0.017 C 
ATOM      2  C   UNL     1     140.661 166.426 186.978  0.00  0.00    -0.045 C 
ATOM      3  C   UNL     1     141.514 167.670 187.260  0.00  0.00    -0.022 C 
ATOM      4  C   UNL     1     141.030 168.932 186.516  0.00  0.00    +0.079 C 
ATOM      5  C   UNL     1     139.940 169.684 187.288  0.00  0.00    -0.048 C 
ATOM      6  C   UNL     1     140.258 170.671 188.154  0.00  0.00    -0.082 C 
ATOM      7  C   UNL     1     139.363 171.554 188.981  0.00  0.00    -0.032 C 
ATOM      8  C   UNL     1     139.456 171.319 190.505  0.00  0.00    -0.038 C 
ATOM      9  C   UNL     1     140.893 171.326 191.080  0.00  0.00    -0.020 C 
ATOM     10  C   UNL     1     141.710 172.585 190.744  0.00  0.00    +0.077 C 
ATOM     11  C   UNL     1     143.122 172.435 191.256  0.00  0.00    -0.059 C 
ATOM     12  C   UNL     1     144.086 171.826 190.542  0.00  0.00    -0.082 C 
ATOM     13  C   UNL     1     145.521 171.667 190.973  0.00  0.00    +0.003 C 
ATOM     14  C   UNL     1     146.513 171.939 189.815  0.00  0.00    +0.112 C 
ATOM     15  O   UNL     1     146.430 170.816 188.899  0.00  0.00    -0.458 OA
ATOM     16  C   UNL     1     145.810 170.992 187.711  0.00  0.00    +0.332 C 
ATOM     17  O   UNL     1     145.391 172.044 187.257  0.00  0.00    -0.246 OA
ATOM     18  C   UNL     1     145.626 169.698 187.017  0.00  0.00    +0.022 C 
ATOM     19  C   UNL     1     146.105 168.523 187.452  0.00  0.00    -0.055 C 
ATOM     20  C   UNL     1     145.807 167.272 186.791  0.00  0.00    -0.065 C 
ATOM     21  C   UNL     1     146.235 166.083 187.242  0.00  0.00    -0.081 C 
ATOM     22  C   UNL     1     145.835 164.771 186.619  0.00  0.00    +0.003 C 
ATOM     23  C   UNL     1     144.993 163.824 187.511  0.00  0.00    +0.111 C 
ATOM     24  C   UNL     1     143.658 164.343 188.133  0.00  0.00    +0.020 C 
ATOM     25  C   UNL     1     142.552 164.580 187.062  0.00  0.00    +0.064 C 
ATOM     26  H   UNL     1     141.296 165.316 188.702  0.00  0.00    +0.032 HD
ATOM     27  H   UNL     1     140.555 166.282 185.896  0.00  0.00    +0.027 HD
ATOM     28  H   UNL     1     139.652 166.603 187.363  0.00  0.00    +0.027 HD
ATOM     29  H   UNL     1     141.548 167.856 188.342  0.00  0.00    +0.029 HD
ATOM     30  H   UNL     1     142.552 167.486 186.968  0.00  0.00    +0.029 HD
ATOM     31  H   UNL     1     140.672 168.653 185.516  0.00  0.00    +0.064 HD
ATOM     32  H   UNL     1     141.320 170.890 188.279  0.00  0.00    +0.057 HD
ATOM     33  H   UNL     1     139.632 172.595 188.761  0.00  0.00    +0.031 HD
ATOM     34  H   UNL     1     138.316 171.467 188.673  0.00  0.00    +0.031 HD
ATOM     35  H   UNL     1     138.895 172.130 190.989  0.00  0.00    +0.030 HD
ATOM     36  H   UNL     1     141.426 170.432 190.730  0.00  0.00    +0.030 HD
ATOM     37  H   UNL     1     140.816 171.234 192.172  0.00  0.00    +0.030 HD
ATOM     38  H   UNL     1     141.734 172.742 189.660  0.00  0.00    +0.064 HD
ATOM     39  H   UNL     1     143.337 172.845 192.239  0.00  0.00    +0.059 HD
ATOM     40  H   UNL     1     143.816 171.399 189.576  0.00  0.00    +0.057 HD
ATOM     41  H   UNL     1     145.729 172.347 191.809  0.00  0.00    +0.034 HD
ATOM     42  H   UNL     1     145.641 170.637 191.333  0.00  0.00    +0.034 HD
ATOM     43  H   UNL     1     146.223 172.875 189.323  0.00  0.00    +0.074 HD
ATOM     44  H   UNL     1     145.013 169.764 186.126  0.00  0.00    +0.069 HD
ATOM     45  H   UNL     1     146.706 168.470 188.356  0.00  0.00    +0.062 HD
ATOM     46  H   UNL     1     145.146 167.309 185.925  0.00  0.00    +0.061 HD
ATOM     47  H   UNL     1     146.873 166.017 188.122  0.00  0.00    +0.057 HD
ATOM     48  H   UNL     1     145.333 164.935 185.661  0.00  0.00    +0.034 HD
ATOM     49  H   UNL     1     146.773 164.254 186.368  0.00  0.00    +0.034 HD
ATOM     50  H   UNL     1     144.754 162.959 186.875  0.00  0.00    +0.074 HD
ATOM     51  H   UNL     1     143.281 163.528 188.767  0.00  0.00    +0.036 HD
ATOM     52  H   UNL     1     142.370 163.598 186.604  0.00  0.00    +0.060 HD
ENDROOT
BRANCH   1  53
ATOM     53  C   UNL     1     140.131 164.029 187.515  0.00  0.00    -0.060 C 
ATOM     54  H   UNL     1     140.043 163.664 186.486  0.00  0.00    +0.023 HD
ATOM     55  H   UNL     1     140.375 163.180 188.162  0.00  0.00    +0.023 HD
ATOM     56  H   UNL     1     139.151 164.408 187.827  0.00  0.00    +0.023 HD
ENDBRANCH   1  53
BRANCH   5  57
ATOM     57  C   UNL     1     138.528 169.267 186.977  0.00  0.00    -0.041 C 
ATOM     58  H   UNL     1     138.520 168.317 186.432  0.00  0.00    +0.028 HD
ATOM     59  H   UNL     1     137.954 169.143 187.899  0.00  0.00    +0.028 HD
ATOM     60  H   UNL     1     137.996 169.986 186.353  0.00  0.00    +0.028 HD
ENDBRANCH   5  57
BRANCH  24  61
ATOM     61  C   UNL     1     143.862 165.506 189.114  0.00  0.00    -0.057 C 
ATOM     62  H   UNL     1     142.900 165.886 189.473  0.00  0.00    +0.023 HD
ATOM     63  H   UNL     1     144.387 166.346 188.658  0.00  0.00    +0.023 HD
ATOM     64  H   UNL     1     144.410 165.193 190.008  0.00  0.00    +0.023 HD
ENDBRANCH  24  61
BRANCH   8  65
ATOM     65  C   UNL     1     138.764 170.004 190.888  0.00  0.00    -0.062 C 
ATOM     66  H   UNL     1     137.862 170.197 191.481  0.00  0.00    +0.023 HD
ATOM     67  H   UNL     1     138.473 169.430 190.003  0.00  0.00    +0.023 HD
ATOM     68  H   UNL     1     139.429 169.379 191.492  0.00  0.00    +0.023 HD
ENDBRANCH   8  65
BRANCH  14  69
ATOM     69  C   UNL     1     147.990 172.029 190.328  0.00  0.00    +0.020 C 
ATOM     70  H   UNL     1     148.641 172.057 189.444  0.00  0.00    +0.036 HD
BRANCH  69  71
ATOM     71  C   UNL     1     148.207 173.316 191.133  0.00  0.00    -0.057 C 
ATOM     72  H   UNL     1     148.588 174.131 190.517  0.00  0.00    +0.023 HD
ATOM     73  H   UNL     1     148.911 173.164 191.957  0.00  0.00    +0.023 HD
ATOM     74  H   UNL     1     147.265 173.672 191.565  0.00  0.00    +0.023 HD
ENDBRANCH  69  71
BRANCH  69  75
ATOM     75  C   UNL     1     148.336 170.729 191.110  0.00  0.00    +0.064 C 
ATOM     76  H   UNL     1     147.530 170.519 191.823  0.00  0.00    +0.060 HD
BRANCH  75  77
ATOM     77  C   UNL     1     149.696 170.623 191.858  0.00  0.00    -0.017 C 
ATOM     78  H   UNL     1     150.467 170.951 191.145  0.00  0.00    +0.032 HD
BRANCH  77  79
ATOM     79  C   UNL     1     149.830 171.581 193.048  0.00  0.00    -0.060 C 
ATOM     80  H   UNL     1     149.402 172.560 192.804  0.00  0.00    +0.023 HD
ATOM     81  H   UNL     1     149.285 171.209 193.921  0.00  0.00    +0.023 HD
ATOM     82  H   UNL     1     150.868 171.750 193.337  0.00  0.00    +0.023 HD
ENDBRANCH  77  79
BRANCH  77  83
ATOM     83  C   UNL     1     150.043 169.152 192.179  0.00  0.00    -0.045 C 
ATOM     84  H   UNL     1     149.250 168.522 191.755  0.00  0.00    +0.027 HD
ATOM     85  H   UNL     1     150.028 168.983 193.256  0.00  0.00    +0.027 HD
BRANCH  83  86
ATOM     86  C   UNL     1     151.395 168.693 191.627  0.00  0.00    -0.015 C 
ATOM     87  H   UNL     1     152.127 169.507 191.715  0.00  0.00    +0.030 HD
ATOM     88  H   UNL     1     151.309 168.502 190.550  0.00  0.00    +0.030 HD
BRANCH  86  89
ATOM     89  C   UNL     1     151.961 167.409 192.270  0.00  0.00    +0.109 C 
ATOM     90  H   UNL     1     152.879 167.697 192.795  0.00  0.00    +0.074 HD
BRANCH  89  91
ATOM     91  C   UNL     1     152.324 166.254 191.297  0.00  0.00    +0.031 C 
ATOM     92  H   UNL     1     151.920 165.332 191.733  0.00  0.00    +0.037 HD
BRANCH  91  93
ATOM     93  C   UNL     1     153.844 166.090 191.146  0.00  0.00    -0.056 C 
ATOM     94  H   UNL     1     154.307 165.788 192.091  0.00  0.00    +0.023 HD
ATOM     95  H   UNL     1     154.316 167.024 190.826  0.00  0.00    +0.023 HD
ATOM     96  H   UNL     1     154.102 165.337 190.395  0.00  0.00    +0.023 HD
ENDBRANCH  91  93
BRANCH  91  97
ATOM     97  C   UNL     1     151.666 166.463 189.896  0.00  0.00    +0.115 C 
ATOM     98  H   UNL     1     151.526 167.542 189.757  0.00  0.00    +0.074 HD
BRANCH  97  99
ATOM     99  C   UNL     1     152.530 165.937 188.710  0.00  0.00    +0.013 C 
ATOM    100  H   UNL     1     153.582 165.932 189.015  0.00  0.00    +0.038 HD
BRANCH  99 101
ATOM    101  C   UNL     1     152.438 166.876 187.498  0.00  0.00    -0.056 C 
ATOM    102  H   UNL     1     152.164 167.898 187.786  0.00  0.00    +0.024 HD
ATOM    103  H   UNL     1     151.681 166.519 186.788  0.00  0.00    +0.024 HD
ATOM    104  H   UNL     1     153.394 166.917 186.967  0.00  0.00    +0.024 HD
ENDBRANCH  99 101
BRANCH  99 105
ATOM    105  C   UNL     1     152.119 164.545 188.266  0.00  0.00    -0.064 C 
ATOM    106  C   UNL     1     152.612 163.417 188.795  0.00  0.00    -0.005 C 
ATOM    107  H   UNL     1     151.392 164.523 187.460  0.00  0.00    +0.059 HD
ATOM    108  H   UNL     1     153.342 163.492 189.602  0.00  0.00    +0.078 HD
BRANCH 106 109
ATOM    109  N   UNL     1     152.298 162.116 188.431  0.00  0.00    -0.284 N 
ATOM    110  C   UNL     1     153.058 160.990 188.724  0.00  0.00    +0.206 C 
ATOM    111  O   UNL     1     152.796 159.837 188.397  0.00  0.00    -0.279 OA
ATOM    112  H   UNL     1     153.962 161.201 189.311  0.00  0.00    +0.126 HD
BRANCH 109 113
ATOM    113  C   UNL     1     151.081 161.921 187.651  0.00  0.00    +0.007 C 
ATOM    114  H   UNL     1     150.989 160.900 187.275  0.00  0.00    +0.043 HD
ATOM    115  H   UNL     1     150.212 162.143 188.277  0.00  0.00    +0.043 HD
ATOM    116  H   UNL     1     151.113 162.611 186.804  0.00  0.00    +0.043 HD
ENDBRANCH 109 113
ENDBRANCH 106 109
ENDBRANCH  99 105
ENDBRANCH  97  99
BRANCH  97 117
ATOM    117  O   UNL     1     150.388 165.780 189.861  0.00  0.00    -0.461 OA
BRANCH 117 118
ATOM    118  C   UNL     1     149.297 166.504 189.490  0.00  0.00    +0.304 C 
ATOM    119  O   UNL     1     149.251 167.299 188.562  0.00  0.00    -0.251 OA
BRANCH 118 120
ATOM    120  C   UNL     1     148.137 166.170 190.375  0.00  0.00    +0.033 C 
ATOM    121  H   UNL     1     147.257 165.956 189.765  0.00  0.00    +0.034 HD
ATOM    122  H   UNL     1     148.386 165.312 191.006  0.00  0.00    +0.034 HD
ATOM    123  H   UNL     1     147.918 167.025 191.021  0.00  0.00    +0.034 HD
ENDBRANCH 118 120
ENDBRANCH 117 118
ENDBRANCH  97 117
ENDBRANCH  91  97
ENDBRANCH  89  91
BRANCH  89 124
ATOM    124  O   UNL     1     150.951 166.947 193.199  0.00  0.00    -0.460 OA
BRANCH 124 125
ATOM    125  C   UNL     1     151.290 165.935 194.041  0.00  0.00    +0.324 C 
ATOM    126  O   UNL     1     152.420 165.790 194.503  0.00  0.00    -0.249 OA
BRANCH 125 127
ATOM    127  C   UNL     1     150.102 165.042 194.450  0.00  0.00    +0.105 C 
ATOM    128  H   UNL     1     150.296 164.066 193.982  0.00  0.00    +0.058 HD
BRANCH 127 129
ATOM    129  C   UNL     1     148.818 165.578 193.803  0.00  0.00    -0.039 C 
ATOM    130  H   UNL     1     148.989 165.875 192.762  0.00  0.00    +0.025 HD
ATOM    131  H   UNL     1     148.009 164.841 193.828  0.00  0.00    +0.025 HD
ATOM    132  H   UNL     1     148.461 166.466 194.339  0.00  0.00    +0.025 HD
ENDBRANCH 127 129
BRANCH 127 133
ATOM    133  N   UNL     1     149.878 164.800 195.899  0.00  0.00    -0.296 NA
BRANCH 133 134
ATOM    134  C   UNL     1     149.660 165.998 196.700  0.00  0.00    -0.012 C 
ATOM    135  H   UNL     1     149.375 166.858 196.085  0.00  0.00    +0.039 HD
ATOM    136  H   UNL     1     150.534 166.273 197.294  0.00  0.00    +0.039 HD
ATOM    137  H   UNL     1     148.827 165.839 197.396  0.00  0.00    +0.039 HD
ENDBRANCH 133 134
BRANCH 133 138
ATOM    138  C   UNL     1     150.865 163.916 196.509  0.00  0.00    -0.012 C 
ATOM    139  H   UNL     1     150.428 162.940 196.742  0.00  0.00    +0.039 HD
ATOM    140  H   UNL     1     151.205 164.335 197.464  0.00  0.00    +0.039 HD
ATOM    141  H   UNL     1     151.749 163.757 195.886  0.00  0.00    +0.039 HD
ENDBRANCH 133 138
ENDBRANCH 127 133
ENDBRANCH 125 127
ENDBRANCH 124 125
ENDBRANCH  89 124
ENDBRANCH  86  89
ENDBRANCH  83  86
ENDBRANCH  77  83
ENDBRANCH  75  77
BRANCH  75 142
ATOM    142  O   UNL     1     148.304 169.645 190.164  0.00  0.00    -0.391 OA
ATOM    143  H   UNL     1     149.035 169.760 189.534  0.00  0.00    +0.210 HD
ENDBRANCH  75 142
ENDBRANCH  69  75
ENDBRANCH  14  69
BRANCH  25 144
ATOM    144  O   UNL     1     143.039 165.387 186.000  0.00  0.00    -0.391 OA
ATOM    145  H   UNL     1     142.672 166.281 186.114  0.00  0.00    +0.210 HD
ENDBRANCH  25 144
BRANCH  23 146
ATOM    146  O   UNL     1     145.887 163.366 188.562  0.00  0.00    -0.460 OA
BRANCH 146 147
ATOM    147  C   UNL     1     146.459 162.141 188.412  0.00  0.00    +0.327 C 
ATOM    148  O   UNL     1     147.506 161.948 187.798  0.00  0.00    -0.249 OA
BRANCH 147 149
ATOM    149  C   UNL     1     145.680 161.009 189.106  0.00  0.00    +0.131 C 
ATOM    150  H   UNL     1     145.454 161.420 190.100  0.00  0.00    +0.060 HD
BRANCH 149 151
ATOM    151  C   UNL     1     146.651 159.819 189.286  0.00  0.00    +0.073 C 
ATOM    152  H   UNL     1     146.596 159.134 188.431  0.00  0.00    +0.058 HD
ATOM    153  H   UNL     1     147.683 160.187 189.338  0.00  0.00    +0.058 HD
BRANCH 151 154
ATOM    154  O   UNL     1     146.373 159.112 190.500  0.00  0.00    -0.381 OA
BRANCH 154 155
ATOM    155  C   UNL     1     146.050 157.750 190.254  0.00  0.00    +0.037 C 
ATOM    156  H   UNL     1     146.951 157.174 190.028  0.00  0.00    +0.052 HD
ATOM    157  H   UNL     1     145.336 157.674 189.428  0.00  0.00    +0.052 HD
ATOM    158  H   UNL     1     145.587 157.338 191.154  0.00  0.00    +0.052 HD
ENDBRANCH 154 155
ENDBRANCH 151 154
ENDBRANCH 149 151
BRANCH 149 159
ATOM    159  N   UNL     1     144.366 160.735 188.439  0.00  0.00    -0.294 NA
BRANCH 159 160
ATOM    160  C   UNL     1     143.305 160.507 189.420  0.00  0.00    -0.012 C 
ATOM    161  H   UNL     1     142.305 160.711 189.026  0.00  0.00    +0.039 HD
ATOM    162  H   UNL     1     143.458 161.140 190.301  0.00  0.00    +0.039 HD
ATOM    163  H   UNL     1     143.332 159.474 189.780  0.00  0.00    +0.039 HD
ENDBRANCH 159 160
BRANCH 159 164
ATOM    164  C   UNL     1     144.412 159.640 187.474  0.00  0.00    -0.012 C 
ATOM    165  H   UNL     1     145.218 158.943 187.732  0.00  0.00    +0.039 HD
ATOM    166  H   UNL     1     144.591 159.987 186.451  0.00  0.00    +0.039 HD
ATOM    167  H   UNL     1     143.485 159.059 187.485  0.00  0.00    +0.039 HD
ENDBRANCH 159 164
ENDBRANCH 149 159
ENDBRANCH 147 149
ENDBRANCH 146 147
ENDBRANCH  23 146
BRANCH   4 168
ATOM    168  O   UNL     1     142.196 169.764 186.348  0.00  0.00    -0.376 OA
BRANCH 168 169
ATOM    169  C   UNL     1     142.442 170.116 184.991  0.00  0.00    +0.037 C 
ATOM    170  H   UNL     1     143.499 169.975 184.748  0.00  0.00    +0.052 HD
ATOM    171  H   UNL     1     141.818 169.530 184.309  0.00  0.00    +0.052 HD
ATOM    172  H   UNL     1     142.195 171.173 184.863  0.00  0.00    +0.052 HD
ENDBRANCH 168 169
ENDBRANCH   4 168
BRANCH  10 173
ATOM    173  O   UNL     1     141.094 173.710 191.376  0.00  0.00    -0.376 OA
BRANCH 173 174
ATOM    174  C   UNL     1     141.497 174.950 190.806  0.00  0.00    +0.037 C 
ATOM    175  H   UNL     1     141.993 175.536 191.585  0.00  0.00    +0.052 HD
ATOM    176  H   UNL     1     142.207 174.791 189.989  0.00  0.00    +0.052 HD
ATOM    177  H   UNL     1     140.629 175.511 190.450  0.00  0.00    +0.052 HD
ENDBRANCH 173 174
ENDBRANCH  10 173
TORSDOF 45
ENDMDL
MODEL 3
REMARK VINA RESULT:      -5.2      5.971     14.986
REMARK  Name = Aplyronine A_conf2
REMARK  45 active torsions:
REMARK  status: ('A' for Active; 'I' for Inactive)
REMARK    1  A    between atoms: C_1  and  C_2
REMARK    2  A    between atoms: C_5  and  O_75
REMARK    3  A    between atoms: C_6  and  C_74
REMARK    4  A    between atoms: C_9  and  C_73
REMARK    5  A    between atoms: C_11  and  O_71
REMARK    6  A    between atoms: C_15  and  C_39
REMARK    7  A    between atoms: C_24  and  O_29
REMARK    8  A    between atoms: C_25  and  C_28
REMARK    9  A    between atoms: C_26  and  O_27
REMARK   10  A    between atoms: O_29  and  C_30
REMARK   11  A    between atoms: C_30  and  C_32
REMARK   12  A    between atoms: C_32  and  C_33
REMARK   13  A    between atoms: C_32  and  N_36
REMARK   14  A    between atoms: C_33  and  O_34
REMARK   15  A    between atoms: O_34  and  C_35
REMARK   16  A    between atoms: N_36  and  C_37
REMARK   17  A    between atoms: N_36  and  C_38
REMARK   18  A    between atoms: C_39  and  C_40
REMARK   19  A    between atoms: C_39  and  C_41
REMARK   20  A    between atoms: C_41  and  C_42
REMARK   21  A    between atoms: C_41  and  O_70
REMARK   22  A    between atoms: C_42  and  C_43
REMARK   23  A    between atoms: C_42  and  C_44
REMARK   24  A    between atoms: C_44  and  C_45
REMARK   25  A    between atoms: C_45  and  C_46
REMARK   26  A    between atoms: C_46  and  C_47
REMARK   27  A    between atoms: C_46  and  O_62
REMARK   28  A    between atoms: C_47  and  C_48
REMARK   29  A    between atoms: C_47  and  C_49
REMARK   30  A    between atoms: C_49  and  C_50
REMARK   31  A    between atoms: C_49  and  O_58
REMARK   32  A    between atoms: C_50  and  C_51
REMARK   33  A    between atoms: C_50  and  C_52
REMARK   34  A    between atoms: C_53  and  N_54
REMARK   35  A    between atoms: N_54  and  C_55
REMARK   36  A    between atoms: O_58  and  C_59
REMARK   37  A    between atoms: C_59  and  C_61
REMARK   38  A    between atoms: O_62  and  C_63
REMARK   39  A    between atoms: C_63  and  C_65
REMARK   40  A    between atoms: C_65  and  C_66
REMARK   41  A    between atoms: C_65  and  N_67
REMARK   42  A    between atoms: N_67  and  C_68
REMARK   43  A    between atoms: N_67  and  C_69
REMARK   44  A    between atoms: O_71  and  C_72
REMARK   45  A    between atoms: O_75  and  C_76
REMARK                            x       y       z     vdW  Elec       q    Type
REMARK                         _______ _______ _______ _____ _____    ______ ____
ROOT
ATOM      1  C   UNL     1     137.833 172.482 187.742  0.00  0.00    -0.017 C 
ATOM      2  C   UNL     1     138.364 171.114 187.249  0.00  0.00    -0.045 C 
ATOM      3  C   UNL     1     139.821 170.831 187.640  0.00  0.00    -0.022 C 
ATOM      4  C   UNL     1     140.304 169.420 187.245  0.00  0.00    +0.079 C 
ATOM      5  C   UNL     1     140.834 169.365 185.807  0.00  0.00    -0.048 C 
ATOM      6  C   UNL     1     142.142 169.572 185.540  0.00  0.00    -0.082 C 
ATOM      7  C   UNL     1     142.876 169.531 184.227  0.00  0.00    -0.032 C 
ATOM      8  C   UNL     1     143.418 170.897 183.750  0.00  0.00    -0.038 C 
ATOM      9  C   UNL     1     144.246 171.675 184.802  0.00  0.00    -0.020 C 
ATOM     10  C   UNL     1     145.419 170.884 185.405  0.00  0.00    +0.077 C 
ATOM     11  C   UNL     1     146.082 171.694 186.492  0.00  0.00    -0.059 C 
ATOM     12  C   UNL     1     145.644 171.686 187.764  0.00  0.00    -0.082 C 
ATOM     13  C   UNL     1     146.272 172.443 188.906  0.00  0.00    +0.003 C 
ATOM     14  C   UNL     1     146.349 171.593 190.199  0.00  0.00    +0.112 C 
ATOM     15  O   UNL     1     145.001 171.477 190.723  0.00  0.00    -0.458 OA
ATOM     16  C   UNL     1     144.360 170.293 190.608  0.00  0.00    +0.332 C 
ATOM     17  O   UNL     1     144.832 169.245 190.198  0.00  0.00    -0.246 OA
ATOM     18  C   UNL     1     142.936 170.426 190.989  0.00  0.00    +0.022 C 
ATOM     19  C   UNL     1     142.380 171.542 191.487  0.00  0.00    -0.055 C 
ATOM     20  C   UNL     1     140.962 171.651 191.744  0.00  0.00    -0.065 C 
ATOM     21  C   UNL     1     140.382 172.776 192.192  0.00  0.00    -0.081 C 
ATOM     22  C   UNL     1     138.891 172.927 192.356  0.00  0.00    +0.003 C 
ATOM     23  C   UNL     1     138.211 173.979 191.444  0.00  0.00    +0.111 C 
ATOM     24  C   UNL     1     138.390 173.881 189.895  0.00  0.00    +0.020 C 
ATOM     25  C   UNL     1     137.661 172.645 189.287  0.00  0.00    +0.064 C 
ATOM     26  H   UNL     1     138.508 173.252 187.356  0.00  0.00    +0.032 HD
ATOM     27  H   UNL     1     137.715 170.310 187.617  0.00  0.00    +0.027 HD
ATOM     28  H   UNL     1     138.289 171.093 186.157  0.00  0.00    +0.027 HD
ATOM     29  H   UNL     1     140.476 171.595 187.200  0.00  0.00    +0.029 HD
ATOM     30  H   UNL     1     139.945 170.937 188.722  0.00  0.00    +0.029 HD
ATOM     31  H   UNL     1     139.487 168.701 187.383  0.00  0.00    +0.064 HD
ATOM     32  H   UNL     1     142.787 169.788 186.393  0.00  0.00    +0.057 HD
ATOM     33  H   UNL     1     143.714 168.831 184.340  0.00  0.00    +0.031 HD
ATOM     34  H   UNL     1     142.259 169.098 183.433  0.00  0.00    +0.031 HD
ATOM     35  H   UNL     1     144.070 170.699 182.888  0.00  0.00    +0.030 HD
ATOM     36  H   UNL     1     143.577 172.019 185.603  0.00  0.00    +0.030 HD
ATOM     37  H   UNL     1     144.638 172.578 184.316  0.00  0.00    +0.030 HD
ATOM     38  H   UNL     1     145.060 169.938 185.827  0.00  0.00    +0.064 HD
ATOM     39  H   UNL     1     146.941 172.294 186.206  0.00  0.00    +0.059 HD
ATOM     40  H   UNL     1     144.758 171.097 187.998  0.00  0.00    +0.057 HD
ATOM     41  H   UNL     1     147.278 172.773 188.617  0.00  0.00    +0.034 HD
ATOM     42  H   UNL     1     145.658 173.336 189.083  0.00  0.00    +0.034 HD
ATOM     43  H   UNL     1     146.762 170.610 189.943  0.00  0.00    +0.074 HD
ATOM     44  H   UNL     1     142.345 169.542 190.785  0.00  0.00    +0.069 HD
ATOM     45  H   UNL     1     142.983 172.427 191.673  0.00  0.00    +0.062 HD
ATOM     46  H   UNL     1     140.339 170.792 191.492  0.00  0.00    +0.061 HD
ATOM     47  H   UNL     1     140.978 173.656 192.423  0.00  0.00    +0.057 HD
ATOM     48  H   UNL     1     138.391 171.959 192.256  0.00  0.00    +0.034 HD
ATOM     49  H   UNL     1     138.729 173.230 193.400  0.00  0.00    +0.034 HD
ATOM     50  H   UNL     1     137.136 173.905 191.663  0.00  0.00    +0.074 HD
ATOM     51  H   UNL     1     137.879 174.758 189.473  0.00  0.00    +0.036 HD
ATOM     52  H   UNL     1     136.596 172.793 189.510  0.00  0.00    +0.060 HD
ENDROOT
BRANCH   1  53
ATOM     53  C   UNL     1     136.483 172.768 187.058  0.00  0.00    -0.060 C 
ATOM     54  H   UNL     1     136.626 173.119 186.030  0.00  0.00    +0.023 HD
ATOM     55  H   UNL     1     135.860 171.868 187.032  0.00  0.00    +0.023 HD
ATOM     56  H   UNL     1     135.925 173.537 187.605  0.00  0.00    +0.023 HD
ENDBRANCH   1  53
BRANCH   5  57
ATOM     57  C   UNL     1     139.808 169.033 184.757  0.00  0.00    -0.041 C 
ATOM     58  H   UNL     1     138.982 169.753 184.787  0.00  0.00    +0.028 HD
ATOM     59  H   UNL     1     140.257 169.063 183.761  0.00  0.00    +0.028 HD
ATOM     60  H   UNL     1     139.363 168.047 184.888  0.00  0.00    +0.028 HD
ENDBRANCH   5  57
BRANCH  24  61
ATOM     61  C   UNL     1     139.847 174.054 189.444  0.00  0.00    -0.057 C 
ATOM     62  H   UNL     1     140.286 173.089 189.166  0.00  0.00    +0.023 HD
ATOM     63  H   UNL     1     140.477 174.476 190.228  0.00  0.00    +0.023 HD
ATOM     64  H   UNL     1     139.925 174.684 188.553  0.00  0.00    +0.023 HD
ENDBRANCH  24  61
BRANCH   8  65
ATOM     65  C   UNL     1     142.270 171.784 183.251  0.00  0.00    -0.062 C 
ATOM     66  H   UNL     1     142.554 172.308 182.331  0.00  0.00    +0.023 HD
ATOM     67  H   UNL     1     141.369 171.198 183.044  0.00  0.00    +0.023 HD
ATOM     68  H   UNL     1     142.015 172.542 183.998  0.00  0.00    +0.023 HD
ENDBRANCH   8  65
BRANCH  14  69
ATOM     69  C   UNL     1     147.230 172.285 191.293  0.00  0.00    +0.020 C 
ATOM     70  H   UNL     1     148.008 172.857 190.771  0.00  0.00    +0.036 HD
BRANCH  69  71
ATOM     71  C   UNL     1     146.391 173.257 192.131  0.00  0.00    -0.057 C 
ATOM     72  H   UNL     1     145.551 172.763 192.622  0.00  0.00    +0.023 HD
ATOM     73  H   UNL     1     145.987 174.071 191.522  0.00  0.00    +0.023 HD
ATOM     74  H   UNL     1     146.991 173.706 192.930  0.00  0.00    +0.023 HD
ENDBRANCH  69  71
BRANCH  69  75
ATOM     75  C   UNL     1     147.952 171.191 192.131  0.00  0.00    +0.064 C 
ATOM     76  H   UNL     1     147.425 171.068 193.084  0.00  0.00    +0.060 HD
BRANCH  75  77
ATOM     77  C   UNL     1     149.474 171.328 192.423  0.00  0.00    -0.017 C 
ATOM     78  H   UNL     1     149.955 171.546 191.457  0.00  0.00    +0.032 HD
BRANCH  77  79
ATOM     79  C   UNL     1     149.832 172.521 193.317  0.00  0.00    -0.060 C 
ATOM     80  H   UNL     1     149.151 172.579 194.173  0.00  0.00    +0.023 HD
ATOM     81  H   UNL     1     150.843 172.422 193.725  0.00  0.00    +0.023 HD
ATOM     82  H   UNL     1     149.766 173.475 192.792  0.00  0.00    +0.023 HD
ENDBRANCH  77  79
BRANCH  77  83
ATOM     83  C   UNL     1     150.079 169.981 192.880  0.00  0.00    -0.045 C 
ATOM     84  H   UNL     1     149.250 169.274 193.018  0.00  0.00    +0.027 HD
ATOM     85  H   UNL     1     150.557 170.090 193.854  0.00  0.00    +0.027 HD
BRANCH  83  86
ATOM     86  C   UNL     1     151.089 169.383 191.899  0.00  0.00    -0.015 C 
ATOM     87  H   UNL     1     152.109 169.646 192.211  0.00  0.00    +0.030 HD
ATOM     88  H   UNL     1     150.965 169.846 190.912  0.00  0.00    +0.030 HD
BRANCH  86  89
ATOM     89  C   UNL     1     150.981 167.857 191.700  0.00  0.00    +0.109 C 
ATOM     90  H   UNL     1     150.458 167.699 190.748  0.00  0.00    +0.074 HD
BRANCH  89  91
ATOM     91  C   UNL     1     150.205 167.072 192.792  0.00  0.00    +0.031 C 
ATOM     92  H   UNL     1     150.050 167.762 193.631  0.00  0.00    +0.037 HD
BRANCH  91  93
ATOM     93  C   UNL     1     151.002 165.863 193.304  0.00  0.00    -0.056 C 
ATOM     94  H   UNL     1     151.924 165.723 192.729  0.00  0.00    +0.023 HD
ATOM     95  H   UNL     1     150.418 164.940 193.229  0.00  0.00    +0.023 HD
ATOM     96  H   UNL     1     151.281 165.971 194.356  0.00  0.00    +0.023 HD
ENDBRANCH  91  93
BRANCH  91  97
ATOM     97  C   UNL     1     148.805 166.610 192.274  0.00  0.00    +0.115 C 
ATOM     98  H   UNL     1     148.840 165.520 192.164  0.00  0.00    +0.074 HD
BRANCH  97  99
ATOM     99  C   UNL     1     147.632 166.953 193.241  0.00  0.00    +0.013 C 
ATOM    100  H   UNL     1     147.811 167.941 193.678  0.00  0.00    +0.038 HD
BRANCH  99 101
ATOM    101  C   UNL     1     147.577 165.967 194.417  0.00  0.00    -0.056 C 
ATOM    102  H   UNL     1     146.623 166.017 194.954  0.00  0.00    +0.024 HD
ATOM    103  H   UNL     1     148.375 166.182 195.140  0.00  0.00    +0.024 HD
ATOM    104  H   UNL     1     147.718 164.940 194.067  0.00  0.00    +0.024 HD
ENDBRANCH  99 101
BRANCH  99 105
ATOM    105  C   UNL     1     146.283 166.939 192.544  0.00  0.00    -0.064 C 
ATOM    106  C   UNL     1     145.240 166.205 192.951  0.00  0.00    -0.005 C 
ATOM    107  H   UNL     1     146.224 167.569 191.662  0.00  0.00    +0.059 HD
ATOM    108  H   UNL     1     145.351 165.587 193.843  0.00  0.00    +0.078 HD
BRANCH 106 109
ATOM    109  N   UNL     1     143.989 166.128 192.359  0.00  0.00    -0.284 N 
ATOM    110  C   UNL     1     142.773 166.269 193.017  0.00  0.00    +0.206 C 
ATOM    111  O   UNL     1     141.662 166.191 192.504  0.00  0.00    -0.279 OA
ATOM    112  H   UNL     1     142.868 166.476 194.092  0.00  0.00    +0.126 HD
BRANCH 109 113
ATOM    113  C   UNL     1     143.949 165.849 190.927  0.00  0.00    +0.007 C 
ATOM    114  H   UNL     1     142.940 165.924 190.518  0.00  0.00    +0.043 HD
ATOM    115  H   UNL     1     144.593 166.561 190.402  0.00  0.00    +0.043 HD
ATOM    116  H   UNL     1     144.320 164.832 190.776  0.00  0.00    +0.043 HD
ENDBRANCH 109 113
ENDBRANCH 106 109
ENDBRANCH  99 105
ENDBRANCH  97  99
BRANCH  97 117
ATOM    117  O   UNL     1     148.536 167.238 190.997  0.00  0.00    -0.461 OA
BRANCH 117 118
ATOM    118  C   UNL     1     148.373 166.426 189.917  0.00  0.00    +0.304 C 
ATOM    119  O   UNL     1     147.646 165.445 189.867  0.00  0.00    -0.251 OA
BRANCH 118 120
ATOM    120  C   UNL     1     149.204 166.922 188.775  0.00  0.00    +0.033 C 
ATOM    121  H   UNL     1     148.556 167.230 187.952  0.00  0.00    +0.034 HD
ATOM    122  H   UNL     1     149.829 167.757 189.104  0.00  0.00    +0.034 HD
ATOM    123  H   UNL     1     149.857 166.116 188.426  0.00  0.00    +0.034 HD
ENDBRANCH 118 120
ENDBRANCH 117 118
ENDBRANCH  97 117
ENDBRANCH  91  97
ENDBRANCH  89  91
BRANCH  89 124
ATOM    124  O   UNL     1     152.340 167.363 191.636  0.00  0.00    -0.460 OA
BRANCH 124 125
ATOM    125  C   UNL     1     152.828 167.021 190.414  0.00  0.00    +0.324 C 
ATOM    126  O   UNL     1     152.638 167.690 189.400  0.00  0.00    -0.249 OA
BRANCH 125 127
ATOM    127  C   UNL     1     153.730 165.772 190.431  0.00  0.00    +0.105 C 
ATOM    128  H   UNL     1     153.707 165.409 191.468  0.00  0.00    +0.058 HD
BRANCH 127 129
ATOM    129  C   UNL     1     155.181 166.191 190.157  0.00  0.00    -0.039 C 
ATOM    130  H   UNL     1     155.522 166.944 190.878  0.00  0.00    +0.025 HD
ATOM    131  H   UNL     1     155.867 165.338 190.192  0.00  0.00    +0.025 HD
ATOM    132  H   UNL     1     155.270 166.635 189.158  0.00  0.00    +0.025 HD
ENDBRANCH 127 129
BRANCH 127 133
ATOM    133  N   UNL     1     153.358 164.631 189.554  0.00  0.00    -0.296 NA
BRANCH 133 134
ATOM    134  C   UNL     1     153.945 164.657 188.221  0.00  0.00    -0.012 C 
ATOM    135  H   UNL     1     155.035 164.759 188.253  0.00  0.00    +0.039 HD
ATOM    136  H   UNL     1     153.542 165.458 187.598  0.00  0.00    +0.039 HD
ATOM    137  H   UNL     1     153.749 163.709 187.704  0.00  0.00    +0.039 HD
ENDBRANCH 133 134
BRANCH 133 138
ATOM    138  C   UNL     1     151.924 164.368 189.507  0.00  0.00    -0.012 C 
ATOM    139  H   UNL     1     151.607 164.098 188.494  0.00  0.00    +0.039 HD
ATOM    140  H   UNL     1     151.367 165.275 189.771  0.00  0.00    +0.039 HD
ATOM    141  H   UNL     1     151.605 163.576 190.189  0.00  0.00    +0.039 HD
ENDBRANCH 133 138
ENDBRANCH 127 133
ENDBRANCH 125 127
ENDBRANCH 124 125
ENDBRANCH  89 124
ENDBRANCH  86  89
ENDBRANCH  83  86
ENDBRANCH  77  83
ENDBRANCH  75  77
BRANCH  75 142
ATOM    142  O   UNL     1     147.781 169.942 191.435  0.00  0.00    -0.391 OA
ATOM    143  H   UNL     1     148.609 169.727 190.974  0.00  0.00    +0.210 HD
ENDBRANCH  75 142
ENDBRANCH  69  75
ENDBRANCH  14  69
BRANCH  25 144
ATOM    144  O   UNL     1     138.014 171.457 189.979  0.00  0.00    -0.391 OA
ATOM    145  H   UNL     1     138.035 170.731 189.331  0.00  0.00    +0.210 HD
ENDBRANCH  25 144
BRANCH  23 146
ATOM    146  O   UNL     1     138.671 175.275 191.916  0.00  0.00    -0.460 OA
BRANCH 146 147
ATOM    147  C   UNL     1     138.313 175.649 193.173  0.00  0.00    +0.327 C 
ATOM    148  O   UNL     1     137.194 175.465 193.648  0.00  0.00    -0.249 OA
BRANCH 147 149
ATOM    149  C   UNL     1     139.455 176.313 193.966  0.00  0.00    +0.131 C 
ATOM    150  H   UNL     1     139.024 177.271 194.290  0.00  0.00    +0.060 HD
BRANCH 149 151
ATOM    151  C   UNL     1     140.600 176.611 192.971  0.00  0.00    +0.073 C 
ATOM    152  H   UNL     1     141.357 175.817 192.993  0.00  0.00    +0.058 HD
ATOM    153  H   UNL     1     140.203 176.648 191.949  0.00  0.00    +0.058 HD
BRANCH 151 154
ATOM    154  O   UNL     1     141.206 177.876 193.255  0.00  0.00    -0.381 OA
BRANCH 154 155
ATOM    155  C   UNL     1     140.240 178.853 193.619  0.00  0.00    +0.037 C 
ATOM    156  H   UNL     1     140.671 179.857 193.580  0.00  0.00    +0.052 HD
ATOM    157  H   UNL     1     139.853 178.647 194.622  0.00  0.00    +0.052 HD
ATOM    158  H   UNL     1     139.412 178.800 192.908  0.00  0.00    +0.052 HD
ENDBRANCH 154 155
ENDBRANCH 151 154
ENDBRANCH 149 151
BRANCH 149 159
ATOM    159  N   UNL     1     139.799 175.548 195.208  0.00  0.00    -0.294 NA
BRANCH 159 160
ATOM    160  C   UNL     1     139.648 176.376 196.405  0.00  0.00    -0.012 C 
ATOM    161  H   UNL     1     139.345 177.402 196.182  0.00  0.00    +0.039 HD
ATOM    162  H   UNL     1     140.591 176.414 196.964  0.00  0.00    +0.039 HD
ATOM    163  H   UNL     1     138.912 175.937 197.084  0.00  0.00    +0.039 HD
ENDBRANCH 159 160
BRANCH 159 164
ATOM    164  C   UNL     1     141.125 174.936 195.176  0.00  0.00    -0.012 C 
ATOM    165  H   UNL     1     141.870 175.669 194.844  0.00  0.00    +0.039 HD
ATOM    166  H   UNL     1     141.177 174.081 194.495  0.00  0.00    +0.039 HD
ATOM    167  H   UNL     1     141.436 174.606 196.171  0.00  0.00    +0.039 HD
ENDBRANCH 159 164
ENDBRANCH 149 159
ENDBRANCH 147 149
ENDBRANCH 146 147
ENDBRANCH  23 146
BRANCH   4 168
ATOM    168  O   UNL     1     141.348 169.082 188.181  0.00  0.00    -0.376 OA
BRANCH 168 169
ATOM    169  C   UNL     1     141.410 167.690 188.472  0.00  0.00    +0.037 C 
ATOM    170  H   UNL     1     140.418 167.315 188.739  0.00  0.00    +0.052 HD
ATOM    171  H   UNL     1     141.810 167.125 187.626  0.00  0.00    +0.052 HD
ATOM    172  H   UNL     1     142.075 167.551 189.328  0.00  0.00    +0.052 HD
ENDBRANCH 168 169
ENDBRANCH   4 168
BRANCH  10 173
ATOM    173  O   UNL     1     146.367 170.615 184.369  0.00  0.00    -0.376 OA
BRANCH 173 174
ATOM    174  C   UNL     1     146.831 169.270 184.385  0.00  0.00    +0.037 C 
ATOM    175  H   UNL     1     146.156 168.671 183.767  0.00  0.00    +0.052 HD
ATOM    176  H   UNL     1     147.838 169.200 183.964  0.00  0.00    +0.052 HD
ATOM    177  H   UNL     1     146.817 168.869 185.401  0.00  0.00    +0.052 HD
ENDBRANCH 173 174
ENDBRANCH  10 173
TORSDOF 45
ENDMDL
MODEL 4
REMARK VINA RESULT:      -5.1      3.238     11.657
REMARK  Name = Aplyronine A_conf2
REMARK  45 active torsions:
REMARK  status: ('A' for Active; 'I' for Inactive)
REMARK    1  A    between atoms: C_1  and  C_2
REMARK    2  A    between atoms: C_5  and  O_75
REMARK    3  A    between atoms: C_6  and  C_74
REMARK    4  A    between atoms: C_9  and  C_73
REMARK    5  A    between atoms: C_11  and  O_71
REMARK    6  A    between atoms: C_15  and  C_39
REMARK    7  A    between atoms: C_24  and  O_29
REMARK    8  A    between atoms: C_25  and  C_28
REMARK    9  A    between atoms: C_26  and  O_27
REMARK   10  A    between atoms: O_29  and  C_30
REMARK   11  A    between atoms: C_30  and  C_32
REMARK   12  A    between atoms: C_32  and  C_33
REMARK   13  A    between atoms: C_32  and  N_36
REMARK   14  A    between atoms: C_33  and  O_34
REMARK   15  A    between atoms: O_34  and  C_35
REMARK   16  A    between atoms: N_36  and  C_37
REMARK   17  A    between atoms: N_36  and  C_38
REMARK   18  A    between atoms: C_39  and  C_40
REMARK   19  A    between atoms: C_39  and  C_41
REMARK   20  A    between atoms: C_41  and  C_42
REMARK   21  A    between atoms: C_41  and  O_70
REMARK   22  A    between atoms: C_42  and  C_43
REMARK   23  A    between atoms: C_42  and  C_44
REMARK   24  A    between atoms: C_44  and  C_45
REMARK   25  A    between atoms: C_45  and  C_46
REMARK   26  A    between atoms: C_46  and  C_47
REMARK   27  A    between atoms: C_46  and  O_62
REMARK   28  A    between atoms: C_47  and  C_48
REMARK   29  A    between atoms: C_47  and  C_49
REMARK   30  A    between atoms: C_49  and  C_50
REMARK   31  A    between atoms: C_49  and  O_58
REMARK   32  A    between atoms: C_50  and  C_51
REMARK   33  A    between atoms: C_50  and  C_52
REMARK   34  A    between atoms: C_53  and  N_54
REMARK   35  A    between atoms: N_54  and  C_55
REMARK   36  A    between atoms: O_58  and  C_59
REMARK   37  A    between atoms: C_59  and  C_61
REMARK   38  A    between atoms: O_62  and  C_63
REMARK   39  A    between atoms: C_63  and  C_65
REMARK   40  A    between atoms: C_65  and  C_66
REMARK   41  A    between atoms: C_65  and  N_67
REMARK   42  A    between atoms: N_67  and  C_68
REMARK   43  A    between atoms: N_67  and  C_69
REMARK   44  A    between atoms: O_71  and  C_72
REMARK   45  A    between atoms: O_75  and  C_76
REMARK                            x       y       z     vdW  Elec       q    Type
REMARK                         _______ _______ _______ _____ _____    ______ ____
ROOT
ATOM      1  C   UNL     1     144.577 166.090 191.230  0.00  0.00    -0.017 C 
ATOM      2  C   UNL     1     145.518 167.316 191.144  0.00  0.00    -0.045 C 
ATOM      3  C   UNL     1     146.778 167.080 190.301  0.00  0.00    -0.022 C 
ATOM      4  C   UNL     1     147.650 168.340 190.126  0.00  0.00    +0.079 C 
ATOM      5  C   UNL     1     148.638 168.533 191.283  0.00  0.00    -0.048 C 
ATOM      6  C   UNL     1     149.885 168.017 191.225  0.00  0.00    -0.082 C 
ATOM      7  C   UNL     1     151.015 168.112 192.214  0.00  0.00    -0.032 C 
ATOM      8  C   UNL     1     151.390 166.776 192.894  0.00  0.00    -0.038 C 
ATOM      9  C   UNL     1     151.627 165.594 191.923  0.00  0.00    -0.020 C 
ATOM     10  C   UNL     1     152.661 165.871 190.819  0.00  0.00    +0.077 C 
ATOM     11  C   UNL     1     152.728 164.698 189.871  0.00  0.00    -0.059 C 
ATOM     12  C   UNL     1     151.895 164.571 188.822  0.00  0.00    -0.082 C 
ATOM     13  C   UNL     1     151.923 163.448 187.818  0.00  0.00    +0.003 C 
ATOM     14  C   UNL     1     151.729 163.956 186.367  0.00  0.00    +0.112 C 
ATOM     15  O   UNL     1     150.339 164.347 186.226  0.00  0.00    -0.458 OA
ATOM     16  C   UNL     1     150.037 165.663 186.169  0.00  0.00    +0.332 C 
ATOM     17  O   UNL     1     150.828 166.590 186.115  0.00  0.00    -0.246 OA
ATOM     18  C   UNL     1     148.574 165.872 186.252  0.00  0.00    +0.022 C 
ATOM     19  C   UNL     1     147.662 164.887 186.269  0.00  0.00    -0.055 C 
ATOM     20  C   UNL     1     146.252 165.142 186.457  0.00  0.00    -0.065 C 
ATOM     21  C   UNL     1     145.333 164.166 186.528  0.00  0.00    -0.081 C 
ATOM     22  C   UNL     1     143.879 164.422 186.833  0.00  0.00    +0.003 C 
ATOM     23  C   UNL     1     143.348 163.822 188.159  0.00  0.00    +0.111 C 
ATOM     24  C   UNL     1     144.061 164.180 189.502  0.00  0.00    +0.020 C 
ATOM     25  C   UNL     1     143.858 165.670 189.908  0.00  0.00    +0.064 C 
ATOM     26  H   UNL     1     145.167 165.253 191.618  0.00  0.00    +0.032 HD
ATOM     27  H   UNL     1     144.965 168.180 190.755  0.00  0.00    +0.027 HD
ATOM     28  H   UNL     1     145.825 167.582 192.160  0.00  0.00    +0.027 HD
ATOM     29  H   UNL     1     147.370 166.266 190.743  0.00  0.00    +0.029 HD
ATOM     30  H   UNL     1     146.501 166.723 189.305  0.00  0.00    +0.029 HD
ATOM     31  H   UNL     1     147.004 169.221 190.020  0.00  0.00    +0.064 HD
ATOM     32  H   UNL     1     150.140 167.453 190.326  0.00  0.00    +0.057 HD
ATOM     33  H   UNL     1     151.890 168.501 191.679  0.00  0.00    +0.031 HD
ATOM     34  H   UNL     1     150.810 168.858 192.990  0.00  0.00    +0.031 HD
ATOM     35  H   UNL     1     152.322 166.949 193.448  0.00  0.00    +0.030 HD
ATOM     36  H   UNL     1     150.669 165.301 191.472  0.00  0.00    +0.030 HD
ATOM     37  H   UNL     1     151.964 164.735 192.519  0.00  0.00    +0.030 HD
ATOM     38  H   UNL     1     152.385 166.772 190.260  0.00  0.00    +0.064 HD
ATOM     39  H   UNL     1     153.489 163.947 190.067  0.00  0.00    +0.059 HD
ATOM     40  H   UNL     1     151.126 165.331 188.684  0.00  0.00    +0.057 HD
ATOM     41  H   UNL     1     152.875 162.908 187.900  0.00  0.00    +0.034 HD
ATOM     42  H   UNL     1     151.114 162.755 188.081  0.00  0.00    +0.034 HD
ATOM     43  H   UNL     1     152.400 164.808 186.206  0.00  0.00    +0.074 HD
ATOM     44  H   UNL     1     148.286 166.911 186.349  0.00  0.00    +0.069 HD
ATOM     45  H   UNL     1     147.967 163.847 186.185  0.00  0.00    +0.062 HD
ATOM     46  H   UNL     1     145.946 166.177 186.614  0.00  0.00    +0.061 HD
ATOM     47  H   UNL     1     145.617 163.123 186.403  0.00  0.00    +0.057 HD
ATOM     48  H   UNL     1     143.657 165.492 186.785  0.00  0.00    +0.034 HD
ATOM     49  H   UNL     1     143.311 163.972 186.007  0.00  0.00    +0.034 HD
ATOM     50  H   UNL     1     142.304 164.157 188.234  0.00  0.00    +0.074 HD
ATOM     51  H   UNL     1     143.554 163.593 190.282  0.00  0.00    +0.036 HD
ATOM     52  H   UNL     1     142.775 165.794 190.040  0.00  0.00    +0.060 HD
ENDROOT
BRANCH   1  53
ATOM     53  C   UNL     1     143.514 166.352 192.313  0.00  0.00    -0.060 C 
ATOM     54  H   UNL     1     143.421 165.498 192.993  0.00  0.00    +0.023 HD
ATOM     55  H   UNL     1     143.771 167.237 192.905  0.00  0.00    +0.023 HD
ATOM     56  H   UNL     1     142.534 166.535 191.859  0.00  0.00    +0.023 HD
ENDBRANCH   1  53
BRANCH   5  57
ATOM     57  C   UNL     1     148.126 169.356 192.435  0.00  0.00    -0.041 C 
ATOM     58  H   UNL     1     148.739 169.189 193.327  0.00  0.00    +0.028 HD
ATOM     59  H   UNL     1     148.155 170.420 192.188  0.00  0.00    +0.028 HD
ATOM     60  H   UNL     1     147.101 169.111 192.715  0.00  0.00    +0.028 HD
ENDBRANCH   5  57
BRANCH  24  61
ATOM     61  C   UNL     1     145.515 163.689 189.562  0.00  0.00    -0.057 C 
ATOM     62  H   UNL     1     145.560 162.597 189.499  0.00  0.00    +0.023 HD
ATOM     63  H   UNL     1     146.011 163.975 190.491  0.00  0.00    +0.023 HD
ATOM     64  H   UNL     1     146.105 164.060 188.720  0.00  0.00    +0.023 HD
ENDBRANCH  24  61
BRANCH   8  65
ATOM     65  C   UNL     1     150.323 166.380 193.924  0.00  0.00    -0.062 C 
ATOM     66  H   UNL     1     150.463 165.344 194.251  0.00  0.00    +0.023 HD
ATOM     67  H   UNL     1     150.358 167.025 194.807  0.00  0.00    +0.023 HD
ATOM     68  H   UNL     1     149.320 166.458 193.490  0.00  0.00    +0.023 HD
ENDBRANCH   8  65
BRANCH  14  69
ATOM     69  C   UNL     1     152.019 162.830 185.318  0.00  0.00    +0.020 C 
ATOM     70  H   UNL     1     152.714 162.120 185.786  0.00  0.00    +0.036 HD
BRANCH  69  71
ATOM     71  C   UNL     1     150.731 162.083 184.955  0.00  0.00    -0.057 C 
ATOM     72  H   UNL     1     150.016 162.064 185.778  0.00  0.00    +0.023 HD
ATOM     73  H   UNL     1     150.932 161.047 184.665  0.00  0.00    +0.023 HD
ATOM     74  H   UNL     1     150.218 162.568 184.116  0.00  0.00    +0.023 HD
ENDBRANCH  69  71
BRANCH  69  75
ATOM     75  C   UNL     1     152.754 163.452 184.096  0.00  0.00    +0.064 C 
ATOM     76  H   UNL     1     152.167 163.255 183.191  0.00  0.00    +0.060 HD
BRANCH  75  77
ATOM     77  C   UNL     1     154.235 163.068 183.816  0.00  0.00    -0.017 C 
ATOM     78  H   UNL     1     154.208 162.127 183.246  0.00  0.00    +0.032 HD
BRANCH  77  79
ATOM     79  C   UNL     1     154.973 164.056 182.903  0.00  0.00    -0.060 C 
ATOM     80  H   UNL     1     154.933 165.068 183.320  0.00  0.00    +0.023 HD
ATOM     81  H   UNL     1     156.032 163.796 182.809  0.00  0.00    +0.023 HD
ATOM     82  H   UNL     1     154.542 164.106 181.903  0.00  0.00    +0.023 HD
ENDBRANCH  77  79
BRANCH  77  83
ATOM     83  C   UNL     1     154.982 162.727 185.124  0.00  0.00    -0.045 C 
ATOM     84  H   UNL     1     155.490 161.765 184.976  0.00  0.00    +0.027 HD
ATOM     85  H   UNL     1     154.273 162.579 185.940  0.00  0.00    +0.027 HD
BRANCH  83  86
ATOM     86  C   UNL     1     156.012 163.776 185.550  0.00  0.00    -0.015 C 
ATOM     87  H   UNL     1     156.155 164.504 184.741  0.00  0.00    +0.030 HD
ATOM     88  H   UNL     1     156.992 163.299 185.681  0.00  0.00    +0.030 HD
BRANCH  86  89
ATOM     89  C   UNL     1     155.688 164.512 186.867  0.00  0.00    +0.109 C 
ATOM     90  H   UNL     1     154.670 164.219 187.151  0.00  0.00    +0.074 HD
BRANCH  89  91
ATOM     91  C   UNL     1     155.727 166.064 186.817  0.00  0.00    +0.031 C 
ATOM     92  H   UNL     1     156.242 166.399 187.726  0.00  0.00    +0.037 HD
BRANCH  91  93
ATOM     93  C   UNL     1     154.317 166.673 186.808  0.00  0.00    -0.056 C 
ATOM     94  H   UNL     1     154.357 167.767 186.815  0.00  0.00    +0.023 HD
ATOM     95  H   UNL     1     153.740 166.354 187.682  0.00  0.00    +0.023 HD
ATOM     96  H   UNL     1     153.744 166.368 185.928  0.00  0.00    +0.023 HD
ENDBRANCH  91  93
BRANCH  91  97
ATOM     97  C   UNL     1     156.537 166.572 185.581  0.00  0.00    +0.115 C 
ATOM     98  H   UNL     1     156.556 165.759 184.845  0.00  0.00    +0.074 HD
BRANCH  97  99
ATOM     99  C   UNL     1     155.915 167.824 184.892  0.00  0.00    +0.013 C 
ATOM    100  H   UNL     1     154.925 168.009 185.323  0.00  0.00    +0.038 HD
BRANCH  99 101
ATOM    101  C   UNL     1     155.691 167.578 183.393  0.00  0.00    -0.056 C 
ATOM    102  H   UNL     1     154.838 168.145 183.003  0.00  0.00    +0.024 HD
ATOM    103  H   UNL     1     155.496 166.515 183.200  0.00  0.00    +0.024 HD
ATOM    104  H   UNL     1     156.579 167.859 182.818  0.00  0.00    +0.024 HD
ENDBRANCH  99 101
BRANCH  99 105
ATOM    105  C   UNL     1     156.781 169.061 185.047  0.00  0.00    -0.064 C 
ATOM    106  C   UNL     1     157.221 169.798 184.020  0.00  0.00    -0.005 C 
ATOM    107  H   UNL     1     157.039 169.307 186.073  0.00  0.00    +0.059 HD
ATOM    108  H   UNL     1     156.935 169.509 183.007  0.00  0.00    +0.078 HD
BRANCH 106 109
ATOM    109  N   UNL     1     158.025 170.926 184.083  0.00  0.00    -0.284 N 
ATOM    110  C   UNL     1     157.593 172.237 183.922  0.00  0.00    +0.206 C 
ATOM    111  O   UNL     1     158.297 173.240 183.964  0.00  0.00    -0.279 OA
ATOM    112  H   UNL     1     156.511 172.333 183.753  0.00  0.00    +0.126 HD
BRANCH 109 113
ATOM    113  C   UNL     1     159.450 170.713 184.310  0.00  0.00    +0.007 C 
ATOM    114  H   UNL     1     159.775 171.081 185.284  0.00  0.00    +0.043 HD
ATOM    115  H   UNL     1     159.669 169.643 184.249  0.00  0.00    +0.043 HD
ATOM    116  H   UNL     1     159.996 171.247 183.527  0.00  0.00    +0.043 HD
ENDBRANCH 109 113
ENDBRANCH 106 109
ENDBRANCH  99 105
ENDBRANCH  97  99
BRANCH  97 117
ATOM    117  O   UNL     1     157.884 166.907 185.996  0.00  0.00    -0.461 OA
BRANCH 117 118
ATOM    118  C   UNL     1     158.885 166.060 185.633  0.00  0.00    +0.304 C 
ATOM    119  O   UNL     1     159.527 165.349 186.392  0.00  0.00    -0.251 OA
BRANCH 118 120
ATOM    120  C   UNL     1     159.079 166.105 184.149  0.00  0.00    +0.033 C 
ATOM    121  H   UNL     1     160.053 165.684 183.891  0.00  0.00    +0.034 HD
ATOM    122  H   UNL     1     158.278 165.552 183.652  0.00  0.00    +0.034 HD
ATOM    123  H   UNL     1     159.045 167.145 183.811  0.00  0.00    +0.034 HD
ENDBRANCH 118 120
ENDBRANCH 117 118
ENDBRANCH  97 117
ENDBRANCH  91  97
ENDBRANCH  89  91
BRANCH  89 124
ATOM    124  O   UNL     1     156.655 164.045 187.837  0.00  0.00    -0.460 OA
BRANCH 124 125
ATOM    125  C   UNL     1     156.302 162.989 188.617  0.00  0.00    +0.324 C 
ATOM    126  O   UNL     1     155.156 162.548 188.679  0.00  0.00    -0.249 OA
BRANCH 125 127
ATOM    127  C   UNL     1     157.489 162.325 189.341  0.00  0.00    +0.105 C 
ATOM    128  H   UNL     1     157.039 161.632 190.066  0.00  0.00    +0.058 HD
BRANCH 127 129
ATOM    129  C   UNL     1     158.236 163.382 190.165  0.00  0.00    -0.039 C 
ATOM    130  H   UNL     1     158.288 163.099 191.224  0.00  0.00    +0.025 HD
ATOM    131  H   UNL     1     159.254 163.544 189.797  0.00  0.00    +0.025 HD
ATOM    132  H   UNL     1     157.717 164.347 190.113  0.00  0.00    +0.025 HD
ENDBRANCH 127 129
BRANCH 127 133
ATOM    133  N   UNL     1     158.454 161.543 188.524  0.00  0.00    -0.296 NA
BRANCH 133 134
ATOM    134  C   UNL     1     159.681 162.247 188.174  0.00  0.00    -0.012 C 
ATOM    135  H   UNL     1     159.540 163.332 188.148  0.00  0.00    +0.039 HD
ATOM    136  H   UNL     1     160.090 161.928 187.213  0.00  0.00    +0.039 HD
ATOM    137  H   UNL     1     160.451 162.063 188.935  0.00  0.00    +0.039 HD
ENDBRANCH 133 134
BRANCH 133 138
ATOM    138  C   UNL     1     157.855 160.894 187.364  0.00  0.00    -0.012 C 
ATOM    139  H   UNL     1     158.486 161.013 186.477  0.00  0.00    +0.039 HD
ATOM    140  H   UNL     1     156.896 161.368 187.122  0.00  0.00    +0.039 HD
ATOM    141  H   UNL     1     157.666 159.828 187.511  0.00  0.00    +0.039 HD
ENDBRANCH 133 138
ENDBRANCH 127 133
ENDBRANCH 125 127
ENDBRANCH 124 125
ENDBRANCH  89 124
ENDBRANCH  86  89
ENDBRANCH  83  86
ENDBRANCH  77  83
ENDBRANCH  75  77
BRANCH  75 142
ATOM    142  O   UNL     1     152.728 164.880 184.267  0.00  0.00    -0.391 OA
ATOM    143  H   UNL     1     153.112 165.097 185.133  0.00  0.00    +0.210 HD
ENDBRANCH  75 142
ENDBRANCH  69  75
ENDBRANCH  14  69
BRANCH  25 144
ATOM    144  O   UNL     1     144.193 166.538 188.835  0.00  0.00    -0.391 OA
ATOM    145  H   UNL     1     143.596 167.305 188.875  0.00  0.00    +0.210 HD
ENDBRANCH  25 144
BRANCH  23 146
ATOM    146  O   UNL     1     143.338 162.380 187.970  0.00  0.00    -0.460 OA
BRANCH 146 147
ATOM    147  C   UNL     1     142.451 161.656 188.702  0.00  0.00    +0.327 C 
ATOM    148  O   UNL     1     141.269 161.965 188.843  0.00  0.00    -0.249 OA
BRANCH 147 149
ATOM    149  C   UNL     1     143.060 160.387 189.327  0.00  0.00    +0.131 C 
ATOM    150  H   UNL     1     143.122 160.628 190.397  0.00  0.00    +0.060 HD
BRANCH 149 151
ATOM    151  C   UNL     1     144.499 160.244 188.780  0.00  0.00    +0.073 C 
ATOM    152  H   UNL     1     144.535 159.525 187.953  0.00  0.00    +0.058 HD
ATOM    153  H   UNL     1     144.843 161.208 188.385  0.00  0.00    +0.058 HD
BRANCH 151 154
ATOM    154  O   UNL     1     145.401 159.845 189.818  0.00  0.00    -0.381 OA
BRANCH 154 155
ATOM    155  C   UNL     1     145.976 158.572 189.555  0.00  0.00    +0.037 C 
ATOM    156  H   UNL     1     145.282 157.771 189.822  0.00  0.00    +0.052 HD
ATOM    157  H   UNL     1     146.914 158.459 190.107  0.00  0.00    +0.052 HD
ATOM    158  H   UNL     1     146.191 158.506 188.485  0.00  0.00    +0.052 HD
ENDBRANCH 154 155
ENDBRANCH 151 154
ENDBRANCH 149 151
BRANCH 149 159
ATOM    159  N   UNL     1     142.150 159.202 189.199  0.00  0.00    -0.294 NA
BRANCH 159 160
ATOM    160  C   UNL     1     142.357 158.249 190.290  0.00  0.00    -0.012 C 
ATOM    161  H   UNL     1     143.412 158.101 190.538  0.00  0.00    +0.039 HD
ATOM    162  H   UNL     1     141.930 157.274 190.031  0.00  0.00    +0.039 HD
ATOM    163  H   UNL     1     141.833 158.579 191.192  0.00  0.00    +0.039 HD
ENDBRANCH 159 160
BRANCH 159 164
ATOM    164  C   UNL     1     142.240 158.525 187.908  0.00  0.00    -0.012 C 
ATOM    165  H   UNL     1     141.317 158.679 187.337  0.00  0.00    +0.039 HD
ATOM    166  H   UNL     1     142.391 157.446 188.008  0.00  0.00    +0.039 HD
ATOM    167  H   UNL     1     143.053 158.934 187.300  0.00  0.00    +0.039 HD
ENDBRANCH 159 164
ENDBRANCH 149 159
ENDBRANCH 147 149
ENDBRANCH 146 147
ENDBRANCH  23 146
BRANCH   4 168
ATOM    168  O   UNL     1     148.358 168.163 188.882  0.00  0.00    -0.376 OA
BRANCH 168 169
ATOM    169  C   UNL     1     147.658 168.690 187.760  0.00  0.00    +0.037 C 
ATOM    170  H   UNL     1     147.526 169.770 187.869  0.00  0.00    +0.052 HD
ATOM    171  H   UNL     1     148.180 168.467 186.826  0.00  0.00    +0.052 HD
ATOM    172  H   UNL     1     146.671 168.222 187.725  0.00  0.00    +0.052 HD
ENDBRANCH 168 169
ENDBRANCH   4 168
BRANCH  10 173
ATOM    173  O   UNL     1     153.939 166.060 191.430  0.00  0.00    -0.376 OA
BRANCH 173 174
ATOM    174  C   UNL     1     155.016 165.896 190.514  0.00  0.00    +0.037 C 
ATOM    175  H   UNL     1     155.539 164.970 190.767  0.00  0.00    +0.052 HD
ATOM    176  H   UNL     1     154.646 165.814 189.488  0.00  0.00    +0.052 HD
ATOM    177  H   UNL     1     155.723 166.726 190.597  0.00  0.00    +0.052 HD
ENDBRANCH 173 174
ENDBRANCH  10 173
TORSDOF 45
ENDMDL
MODEL 5
REMARK VINA RESULT:      -5.1      3.143      9.161
REMARK  Name = Aplyronine A_conf2
REMARK  45 active torsions:
REMARK  status: ('A' for Active; 'I' for Inactive)
REMARK    1  A    between atoms: C_1  and  C_2
REMARK    2  A    between atoms: C_5  and  O_75
REMARK    3  A    between atoms: C_6  and  C_74
REMARK    4  A    between atoms: C_9  and  C_73
REMARK    5  A    between atoms: C_11  and  O_71
REMARK    6  A    between atoms: C_15  and  C_39
REMARK    7  A    between atoms: C_24  and  O_29
REMARK    8  A    between atoms: C_25  and  C_28
REMARK    9  A    between atoms: C_26  and  O_27
REMARK   10  A    between atoms: O_29  and  C_30
REMARK   11  A    between atoms: C_30  and  C_32
REMARK   12  A    between atoms: C_32  and  C_33
REMARK   13  A    between atoms: C_32  and  N_36
REMARK   14  A    between atoms: C_33  and  O_34
REMARK   15  A    between atoms: O_34  and  C_35
REMARK   16  A    between atoms: N_36  and  C_37
REMARK   17  A    between atoms: N_36  and  C_38
REMARK   18  A    between atoms: C_39  and  C_40
REMARK   19  A    between atoms: C_39  and  C_41
REMARK   20  A    between atoms: C_41  and  C_42
REMARK   21  A    between atoms: C_41  and  O_70
REMARK   22  A    between atoms: C_42  and  C_43
REMARK   23  A    between atoms: C_42  and  C_44
REMARK   24  A    between atoms: C_44  and  C_45
REMARK   25  A    between atoms: C_45  and  C_46
REMARK   26  A    between atoms: C_46  and  C_47
REMARK   27  A    between atoms: C_46  and  O_62
REMARK   28  A    between atoms: C_47  and  C_48
REMARK   29  A    between atoms: C_47  and  C_49
REMARK   30  A    between atoms: C_49  and  C_50
REMARK   31  A    between atoms: C_49  and  O_58
REMARK   32  A    between atoms: C_50  and  C_51
REMARK   33  A    between atoms: C_50  and  C_52
REMARK   34  A    between atoms: C_53  and  N_54
REMARK   35  A    between atoms: N_54  and  C_55
REMARK   36  A    between atoms: O_58  and  C_59
REMARK   37  A    between atoms: C_59  and  C_61
REMARK   38  A    between atoms: O_62  and  C_63
REMARK   39  A    between atoms: C_63  and  C_65
REMARK   40  A    between atoms: C_65  and  C_66
REMARK   41  A    between atoms: C_65  and  N_67
REMARK   42  A    between atoms: N_67  and  C_68
REMARK   43  A    between atoms: N_67  and  C_69
REMARK   44  A    between atoms: O_71  and  C_72
REMARK   45  A    between atoms: O_75  and  C_76
REMARK                            x       y       z     vdW  Elec       q    Type
REMARK                         _______ _______ _______ _____ _____    ______ ____
ROOT
ATOM      1  C   UNL     1     152.438 160.430 187.541  0.00  0.00    -0.017 C 
ATOM      2  C   UNL     1     151.390 159.590 186.770  0.00  0.00    -0.045 C 
ATOM      3  C   UNL     1     150.029 160.280 186.612  0.00  0.00    -0.022 C 
ATOM      4  C   UNL     1     149.030 159.486 185.745  0.00  0.00    +0.079 C 
ATOM      5  C   UNL     1     148.246 158.450 186.557  0.00  0.00    -0.048 C 
ATOM      6  C   UNL     1     147.059 158.763 187.122  0.00  0.00    -0.082 C 
ATOM      7  C   UNL     1     146.115 157.905 187.920  0.00  0.00    -0.032 C 
ATOM      8  C   UNL     1     145.986 158.302 189.408  0.00  0.00    -0.038 C 
ATOM      9  C   UNL     1     145.690 159.800 189.660  0.00  0.00    -0.020 C 
ATOM     10  C   UNL     1     144.459 160.343 188.915  0.00  0.00    +0.077 C 
ATOM     11  C   UNL     1     144.333 161.830 189.144  0.00  0.00    -0.059 C 
ATOM     12  C   UNL     1     144.979 162.733 188.384  0.00  0.00    -0.082 C 
ATOM     13  C   UNL     1     144.877 164.229 188.533  0.00  0.00    +0.003 C 
ATOM     14  C   UNL     1     144.769 164.946 187.165  0.00  0.00    +0.112 C 
ATOM     15  O   UNL     1     146.072 164.873 186.531  0.00  0.00    -0.458 OA
ATOM     16  C   UNL     1     146.241 164.033 185.487  0.00  0.00    +0.332 C 
ATOM     17  O   UNL     1     145.373 163.385 184.926  0.00  0.00    -0.246 OA
ATOM     18  C   UNL     1     147.671 163.927 185.121  0.00  0.00    +0.022 C 
ATOM     19  C   UNL     1     148.656 164.649 185.676  0.00  0.00    -0.055 C 
ATOM     20  C   UNL     1     150.049 164.432 185.357  0.00  0.00    -0.065 C 
ATOM     21  C   UNL     1     151.050 165.109 185.940  0.00  0.00    -0.081 C 
ATOM     22  C   UNL     1     152.506 164.809 185.691  0.00  0.00    +0.003 C 
ATOM     23  C   UNL     1     153.312 164.293 186.910  0.00  0.00    +0.111 C 
ATOM     24  C   UNL     1     152.814 163.026 187.677  0.00  0.00    +0.020 C 
ATOM     25  C   UNL     1     152.950 161.725 186.832  0.00  0.00    +0.064 C 
ATOM     26  H   UNL     1     152.002 160.682 188.513  0.00  0.00    +0.032 HD
ATOM     27  H   UNL     1     151.788 159.317 185.784  0.00  0.00    +0.027 HD
ATOM     28  H   UNL     1     151.242 158.651 187.311  0.00  0.00    +0.027 HD
ATOM     29  H   UNL     1     149.599 160.478 187.604  0.00  0.00    +0.029 HD
ATOM     30  H   UNL     1     150.159 161.266 186.156  0.00  0.00    +0.029 HD
ATOM     31  H   UNL     1     149.566 159.003 184.918  0.00  0.00    +0.064 HD
ATOM     32  H   UNL     1     146.703 159.784 186.978  0.00  0.00    +0.057 HD
ATOM     33  H   UNL     1     145.129 157.969 187.444  0.00  0.00    +0.031 HD
ATOM     34  H   UNL     1     146.384 156.845 187.860  0.00  0.00    +0.031 HD
ATOM     35  H   UNL     1     145.152 157.719 189.823  0.00  0.00    +0.030 HD
ATOM     36  H   UNL     1     146.577 160.392 189.395  0.00  0.00    +0.030 HD
ATOM     37  H   UNL     1     145.540 159.933 190.740  0.00  0.00    +0.030 HD
ATOM     38  H   UNL     1     144.551 160.150 187.841  0.00  0.00    +0.064 HD
ATOM     39  H   UNL     1     143.688 162.151 189.958  0.00  0.00    +0.059 HD
ATOM     40  H   UNL     1     145.641 162.364 187.602  0.00  0.00    +0.057 HD
ATOM     41  H   UNL     1     144.006 164.476 189.153  0.00  0.00    +0.034 HD
ATOM     42  H   UNL     1     145.779 164.566 189.061  0.00  0.00    +0.034 HD
ATOM     43  H   UNL     1     144.007 164.435 186.565  0.00  0.00    +0.074 HD
ATOM     44  H   UNL     1     147.877 163.163 184.381  0.00  0.00    +0.069 HD
ATOM     45  H   UNL     1     148.436 165.402 186.428  0.00  0.00    +0.062 HD
ATOM     46  H   UNL     1     150.284 163.630 184.657  0.00  0.00    +0.061 HD
ATOM     47  H   UNL     1     150.844 165.895 186.664  0.00  0.00    +0.057 HD
ATOM     48  H   UNL     1     152.620 164.126 184.844  0.00  0.00    +0.034 HD
ATOM     49  H   UNL     1     152.960 165.755 185.361  0.00  0.00    +0.034 HD
ATOM     50  H   UNL     1     154.319 164.079 186.525  0.00  0.00    +0.074 HD
ATOM     51  H   UNL     1     153.499 162.896 188.526  0.00  0.00    +0.036 HD
ATOM     52  H   UNL     1     154.024 161.615 186.630  0.00  0.00    +0.060 HD
ENDROOT
BRANCH   1  53
ATOM     53  C   UNL     1     153.645 159.535 187.876  0.00  0.00    -0.060 C 
ATOM     54  H   UNL     1     154.355 160.054 188.529  0.00  0.00    +0.023 HD
ATOM     55  H   UNL     1     153.322 158.617 188.379  0.00  0.00    +0.023 HD
ATOM     56  H   UNL     1     154.175 159.239 186.964  0.00  0.00    +0.023 HD
ENDBRANCH   1  53
BRANCH   5  57
ATOM     57  C   UNL     1     148.875 157.084 186.635  0.00  0.00    -0.041 C 
ATOM     58  H   UNL     1     149.010 156.784 187.681  0.00  0.00    +0.028 HD
ATOM     59  H   UNL     1     148.243 156.343 186.140  0.00  0.00    +0.028 HD
ATOM     60  H   UNL     1     149.860 157.039 186.172  0.00  0.00    +0.028 HD
ENDBRANCH   5  57
BRANCH  24  61
ATOM     61  C   UNL     1     151.443 163.222 188.339  0.00  0.00    -0.057 C 
ATOM     62  H   UNL     1     151.230 162.409 189.041  0.00  0.00    +0.023 HD
ATOM     63  H   UNL     1     150.630 163.238 187.613  0.00  0.00    +0.023 HD
ATOM     64  H   UNL     1     151.405 164.142 188.930  0.00  0.00    +0.023 HD
ENDBRANCH  24  61
BRANCH   8  65
ATOM     65  C   UNL     1     147.246 157.896 190.183  0.00  0.00    -0.062 C 
ATOM     66  H   UNL     1     147.238 156.823 190.406  0.00  0.00    +0.023 HD
ATOM     67  H   UNL     1     148.156 158.119 189.617  0.00  0.00    +0.023 HD
ATOM     68  H   UNL     1     147.303 158.432 191.136  0.00  0.00    +0.023 HD
ENDBRANCH   8  65
BRANCH  14  69
ATOM     69  C   UNL     1     144.403 166.460 187.333  0.00  0.00    +0.020 C 
ATOM     70  H   UNL     1     143.705 166.718 186.526  0.00  0.00    +0.036 HD
BRANCH  69  71
ATOM     71  C   UNL     1     143.704 166.702 188.676  0.00  0.00    -0.057 C 
ATOM     72  H   UNL     1     144.030 167.628 189.153  0.00  0.00    +0.023 HD
ATOM     73  H   UNL     1     143.885 165.884 189.380  0.00  0.00    +0.023 HD
ATOM     74  H   UNL     1     142.620 166.792 188.544  0.00  0.00    +0.023 HD
ENDBRANCH  69  71
BRANCH  69  75
ATOM     75  C   UNL     1     145.683 167.319 187.123  0.00  0.00    +0.064 C 
ATOM     76  H   UNL     1     146.550 166.757 187.490  0.00  0.00    +0.060 HD
BRANCH  75  77
ATOM     77  C   UNL     1     145.744 168.759 187.707  0.00  0.00    -0.017 C 
ATOM     78  H   UNL     1     146.597 169.254 187.218  0.00  0.00    +0.032 HD
BRANCH  77  79
ATOM     79  C   UNL     1     144.531 169.628 187.352  0.00  0.00    -0.060 C 
ATOM     80  H   UNL     1     143.755 169.537 188.120  0.00  0.00    +0.023 HD
ATOM     81  H   UNL     1     144.802 170.687 187.302  0.00  0.00    +0.023 HD
ATOM     82  H   UNL     1     144.075 169.345 186.403  0.00  0.00    +0.023 HD
ENDBRANCH  77  79
BRANCH  77  83
ATOM     83  C   UNL     1     146.098 168.738 189.211  0.00  0.00    -0.045 C 
ATOM     84  H   UNL     1     145.681 167.816 189.638  0.00  0.00    +0.027 HD
ATOM     85  H   UNL     1     145.612 169.566 189.728  0.00  0.00    +0.027 HD
BRANCH  83  86
ATOM     86  C   UNL     1     147.600 168.789 189.502  0.00  0.00    -0.015 C 
ATOM     87  H   UNL     1     148.155 168.917 188.563  0.00  0.00    +0.030 HD
ATOM     88  H   UNL     1     147.932 167.822 189.901  0.00  0.00    +0.030 HD
BRANCH  86  89
ATOM     89  C   UNL     1     148.032 169.869 190.516  0.00  0.00    +0.109 C 
ATOM     90  H   UNL     1     148.829 170.451 190.038  0.00  0.00    +0.074 HD
BRANCH  89  91
ATOM     91  C   UNL     1     148.582 169.357 191.875  0.00  0.00    +0.031 C 
ATOM     92  H   UNL     1     147.943 169.783 192.659  0.00  0.00    +0.037 HD
BRANCH  91  93
ATOM     93  C   UNL     1     150.024 169.825 192.122  0.00  0.00    -0.056 C 
ATOM     94  H   UNL     1     150.047 170.748 192.710  0.00  0.00    +0.023 HD
ATOM     95  H   UNL     1     150.548 170.015 191.180  0.00  0.00    +0.023 HD
ATOM     96  H   UNL     1     150.612 169.075 192.660  0.00  0.00    +0.023 HD
ENDBRANCH  91  93
BRANCH  91  97
ATOM     97  C   UNL     1     148.500 167.799 191.971  0.00  0.00    +0.115 C 
ATOM     98  H   UNL     1     148.316 167.418 190.960  0.00  0.00    +0.074 HD
BRANCH  97  99
ATOM     99  C   UNL     1     149.806 167.132 192.501  0.00  0.00    +0.013 C 
ATOM    100  H   UNL     1     150.572 167.905 192.626  0.00  0.00    +0.038 HD
BRANCH  99 101
ATOM    101  C   UNL     1     150.368 166.131 191.482  0.00  0.00    -0.056 C 
ATOM    102  H   UNL     1     149.955 165.125 191.619  0.00  0.00    +0.024 HD
ATOM    103  H   UNL     1     151.459 166.054 191.576  0.00  0.00    +0.024 HD
ATOM    104  H   UNL     1     150.147 166.453 190.459  0.00  0.00    +0.024 HD
ENDBRANCH  99 101
BRANCH  99 105
ATOM    105  C   UNL     1     149.592 166.405 193.816  0.00  0.00    -0.064 C 
ATOM    106  C   UNL     1     150.538 165.688 194.435  0.00  0.00    -0.005 C 
ATOM    107  H   UNL     1     148.591 166.496 194.226  0.00  0.00    +0.059 HD
ATOM    108  H   UNL     1     151.529 165.626 193.981  0.00  0.00    +0.078 HD
BRANCH 106 109
ATOM    109  N   UNL     1     150.413 164.986 195.624  0.00  0.00    -0.284 N 
ATOM    110  C   UNL     1     151.092 163.818 195.949  0.00  0.00    +0.206 C 
ATOM    111  O   UNL     1     150.979 163.183 196.992  0.00  0.00    -0.279 OA
ATOM    112  H   UNL     1     151.789 163.475 195.171  0.00  0.00    +0.126 HD
BRANCH 109 113
ATOM    113  C   UNL     1     149.465 165.505 196.604  0.00  0.00    +0.007 C 
ATOM    114  H   UNL     1     148.686 164.782 196.852  0.00  0.00    +0.043 HD
ATOM    115  H   UNL     1     150.002 165.771 197.519  0.00  0.00    +0.043 HD
ATOM    116  H   UNL     1     149.000 166.398 196.177  0.00  0.00    +0.043 HD
ENDBRANCH 109 113
ENDBRANCH 106 109
ENDBRANCH  99 105
ENDBRANCH  97  99
BRANCH  97 117
ATOM    117  O   UNL     1     147.414 167.431 192.856  0.00  0.00    -0.461 OA
BRANCH 117 118
ATOM    118  C   UNL     1     146.303 166.881 192.294  0.00  0.00    +0.304 C 
ATOM    119  O   UNL     1     145.171 167.337 192.360  0.00  0.00    -0.251 OA
BRANCH 118 120
ATOM    120  C   UNL     1     146.669 165.632 191.554  0.00  0.00    +0.033 C 
ATOM    121  H   UNL     1     145.828 164.936 191.564  0.00  0.00    +0.034 HD
ATOM    122  H   UNL     1     146.951 165.878 190.526  0.00  0.00    +0.034 HD
ATOM    123  H   UNL     1     147.524 165.159 192.045  0.00  0.00    +0.034 HD
ENDBRANCH 118 120
ENDBRANCH 117 118
ENDBRANCH  97 117
ENDBRANCH  91  97
ENDBRANCH  89  91
BRANCH  89 124
ATOM    124  O   UNL     1     146.861 170.686 190.756  0.00  0.00    -0.460 OA
BRANCH 124 125
ATOM    125  C   UNL     1     146.856 171.944 190.240  0.00  0.00    +0.324 C 
ATOM    126  O   UNL     1     146.342 172.228 189.160  0.00  0.00    -0.249 OA
BRANCH 125 127
ATOM    127  C   UNL     1     147.463 173.004 191.179  0.00  0.00    +0.105 C 
ATOM    128  H   UNL     1     146.984 173.952 190.896  0.00  0.00    +0.058 HD
BRANCH 127 129
ATOM    129  C   UNL     1     148.956 173.168 190.861  0.00  0.00    -0.039 C 
ATOM    130  H   UNL     1     149.183 172.855 189.835  0.00  0.00    +0.025 HD
ATOM    131  H   UNL     1     149.292 174.201 190.994  0.00  0.00    +0.025 HD
ATOM    132  H   UNL     1     149.561 172.544 191.531  0.00  0.00    +0.025 HD
ENDBRANCH 127 129
BRANCH 127 133
ATOM    133  N   UNL     1     147.271 172.831 192.642  0.00  0.00    -0.296 NA
BRANCH 133 134
ATOM    134  C   UNL     1     146.337 173.763 193.259  0.00  0.00    -0.012 C 
ATOM    135  H   UNL     1     146.689 174.798 193.201  0.00  0.00    +0.039 HD
ATOM    136  H   UNL     1     146.133 173.526 194.305  0.00  0.00    +0.039 HD
ATOM    137  H   UNL     1     145.378 173.744 192.725  0.00  0.00    +0.039 HD
ENDBRANCH 133 134
BRANCH 133 138
ATOM    138  C   UNL     1     148.518 172.741 193.393  0.00  0.00    -0.012 C 
ATOM    139  H   UNL     1     149.360 173.118 192.804  0.00  0.00    +0.039 HD
ATOM    140  H   UNL     1     148.746 171.692 193.618  0.00  0.00    +0.039 HD
ATOM    141  H   UNL     1     148.493 173.282 194.343  0.00  0.00    +0.039 HD
ENDBRANCH 133 138
ENDBRANCH 127 133
ENDBRANCH 125 127
ENDBRANCH 124 125
ENDBRANCH  89 124
ENDBRANCH  86  89
ENDBRANCH  83  86
ENDBRANCH  77  83
ENDBRANCH  75  77
BRANCH  75 142
ATOM    142  O   UNL     1     145.880 167.445 185.703  0.00  0.00    -0.391 OA
ATOM    143  H   UNL     1     146.834 167.428 185.519  0.00  0.00    +0.210 HD
ENDBRANCH  75 142
ENDBRANCH  69  75
ENDBRANCH  14  69
BRANCH  25 144
ATOM    144  O   UNL     1     152.357 161.887 185.552  0.00  0.00    -0.391 OA
ATOM    145  H   UNL     1     153.012 162.313 184.972  0.00  0.00    +0.210 HD
ENDBRANCH  25 144
BRANCH  23 146
ATOM    146  O   UNL     1     153.418 165.418 187.824  0.00  0.00    -0.460 OA
BRANCH 146 147
ATOM    147  C   UNL     1     154.427 166.305 187.616  0.00  0.00    +0.327 C 
ATOM    148  O   UNL     1     154.261 167.520 187.527  0.00  0.00    -0.249 OA
BRANCH 147 149
ATOM    149  C   UNL     1     155.816 165.646 187.523  0.00  0.00    +0.131 C 
ATOM    150  H   UNL     1     155.592 164.605 187.251  0.00  0.00    +0.060 HD
BRANCH 149 151
ATOM    151  C   UNL     1     156.430 165.653 188.942  0.00  0.00    +0.073 C 
ATOM    152  H   UNL     1     157.518 165.790 188.899  0.00  0.00    +0.058 HD
ATOM    153  H   UNL     1     156.023 166.493 189.518  0.00  0.00    +0.058 HD
BRANCH 151 154
ATOM    154  O   UNL     1     156.114 164.444 189.641  0.00  0.00    -0.381 OA
BRANCH 154 155
ATOM    155  C   UNL     1     156.387 163.293 188.852  0.00  0.00    +0.037 C 
ATOM    156  H   UNL     1     155.462 162.766 188.603  0.00  0.00    +0.052 HD
ATOM    157  H   UNL     1     157.072 162.625 189.382  0.00  0.00    +0.052 HD
ATOM    158  H   UNL     1     156.865 163.618 187.924  0.00  0.00    +0.052 HD
ENDBRANCH 154 155
ENDBRANCH 151 154
ENDBRANCH 149 151
BRANCH 149 159
ATOM    159  N   UNL     1     156.640 166.219 186.410  0.00  0.00    -0.294 NA
BRANCH 159 160
ATOM    160  C   UNL     1     156.096 165.857 185.101  0.00  0.00    -0.012 C 
ATOM    161  H   UNL     1     156.590 164.990 184.655  0.00  0.00    +0.039 HD
ATOM    162  H   UNL     1     156.191 166.697 184.403  0.00  0.00    +0.039 HD
ATOM    163  H   UNL     1     155.025 165.646 185.176  0.00  0.00    +0.039 HD
ENDBRANCH 159 160
BRANCH 159 164
ATOM    164  C   UNL     1     158.056 165.873 186.486  0.00  0.00    -0.012 C 
ATOM    165  H   UNL     1     158.208 164.833 186.173  0.00  0.00    +0.039 HD
ATOM    166  H   UNL     1     158.461 165.975 187.498  0.00  0.00    +0.039 HD
ATOM    167  H   UNL     1     158.655 166.491 185.810  0.00  0.00    +0.039 HD
ENDBRANCH 159 164
ENDBRANCH 149 159
ENDBRANCH 147 149
ENDBRANCH 146 147
ENDBRANCH  23 146
BRANCH   4 168
ATOM    168  O   UNL     1     148.136 160.463 185.175  0.00  0.00    -0.376 OA
BRANCH 168 169
ATOM    169  C   UNL     1     148.007 160.348 183.763  0.00  0.00    +0.037 C 
ATOM    170  H   UNL     1     147.143 160.921 183.413  0.00  0.00    +0.052 HD
ATOM    171  H   UNL     1     148.913 160.685 183.252  0.00  0.00    +0.052 HD
ATOM    172  H   UNL     1     147.844 159.295 183.521  0.00  0.00    +0.052 HD
ENDBRANCH 168 169
ENDBRANCH   4 168
BRANCH  10 173
ATOM    173  O   UNL     1     143.294 159.686 189.421  0.00  0.00    -0.376 OA
BRANCH 173 174
ATOM    174  C   UNL     1     142.332 160.595 189.942  0.00  0.00    +0.037 C 
ATOM    175  H   UNL     1     141.782 160.087 190.739  0.00  0.00    +0.052 HD
ATOM    176  H   UNL     1     142.819 161.477 190.367  0.00  0.00    +0.052 HD
ATOM    177  H   UNL     1     141.621 160.891 189.166  0.00  0.00    +0.052 HD
ENDBRANCH 173 174
ENDBRANCH  10 173
TORSDOF 45
ENDMDL
MODEL 6
REMARK VINA RESULT:      -5.1      3.124      8.998
REMARK  Name = Aplyronine A_conf2
REMARK  45 active torsions:
REMARK  status: ('A' for Active; 'I' for Inactive)
REMARK    1  A    between atoms: C_1  and  C_2
REMARK    2  A    between atoms: C_5  and  O_75
REMARK    3  A    between atoms: C_6  and  C_74
REMARK    4  A    between atoms: C_9  and  C_73
REMARK    5  A    between atoms: C_11  and  O_71
REMARK    6  A    between atoms: C_15  and  C_39
REMARK    7  A    between atoms: C_24  and  O_29
REMARK    8  A    between atoms: C_25  and  C_28
REMARK    9  A    between atoms: C_26  and  O_27
REMARK   10  A    between atoms: O_29  and  C_30
REMARK   11  A    between atoms: C_30  and  C_32
REMARK   12  A    between atoms: C_32  and  C_33
REMARK   13  A    between atoms: C_32  and  N_36
REMARK   14  A    between atoms: C_33  and  O_34
REMARK   15  A    between atoms: O_34  and  C_35
REMARK   16  A    between atoms: N_36  and  C_37
REMARK   17  A    between atoms: N_36  and  C_38
REMARK   18  A    between atoms: C_39  and  C_40
REMARK   19  A    between atoms: C_39  and  C_41
REMARK   20  A    between atoms: C_41  and  C_42
REMARK   21  A    between atoms: C_41  and  O_70
REMARK   22  A    between atoms: C_42  and  C_43
REMARK   23  A    between atoms: C_42  and  C_44
REMARK   24  A    between atoms: C_44  and  C_45
REMARK   25  A    between atoms: C_45  and  C_46
REMARK   26  A    between atoms: C_46  and  C_47
REMARK   27  A    between atoms: C_46  and  O_62
REMARK   28  A    between atoms: C_47  and  C_48
REMARK   29  A    between atoms: C_47  and  C_49
REMARK   30  A    between atoms: C_49  and  C_50
REMARK   31  A    between atoms: C_49  and  O_58
REMARK   32  A    between atoms: C_50  and  C_51
REMARK   33  A    between atoms: C_50  and  C_52
REMARK   34  A    between atoms: C_53  and  N_54
REMARK   35  A    between atoms: N_54  and  C_55
REMARK   36  A    between atoms: O_58  and  C_59
REMARK   37  A    between atoms: C_59  and  C_61
REMARK   38  A    between atoms: O_62  and  C_63
REMARK   39  A    between atoms: C_63  and  C_65
REMARK   40  A    between atoms: C_65  and  C_66
REMARK   41  A    between atoms: C_65  and  N_67
REMARK   42  A    between atoms: N_67  and  C_68
REMARK   43  A    between atoms: N_67  and  C_69
REMARK   44  A    between atoms: O_71  and  C_72
REMARK   45  A    between atoms: O_75  and  C_76
REMARK                            x       y       z     vdW  Elec       q    Type
REMARK                         _______ _______ _______ _____ _____    ______ ____
ROOT
ATOM      1  C   UNL     1     153.306 160.116 188.648  0.00  0.00    -0.017 C 
ATOM      2  C   UNL     1     152.295 159.251 187.856  0.00  0.00    -0.045 C 
ATOM      3  C   UNL     1     151.077 160.028 187.339  0.00  0.00    -0.022 C 
ATOM      4  C   UNL     1     150.135 159.184 186.455  0.00  0.00    +0.079 C 
ATOM      5  C   UNL     1     149.104 158.403 187.278  0.00  0.00    -0.048 C 
ATOM      6  C   UNL     1     147.893 158.933 187.557  0.00  0.00    -0.082 C 
ATOM      7  C   UNL     1     146.731 158.340 188.307  0.00  0.00    -0.032 C 
ATOM      8  C   UNL     1     146.418 159.026 189.656  0.00  0.00    -0.038 C 
ATOM      9  C   UNL     1     146.282 160.566 189.589  0.00  0.00    -0.020 C 
ATOM     10  C   UNL     1     145.266 161.074 188.552  0.00  0.00    +0.077 C 
ATOM     11  C   UNL     1     145.298 162.582 188.496  0.00  0.00    -0.059 C 
ATOM     12  C   UNL     1     146.169 163.255 187.722  0.00  0.00    -0.082 C 
ATOM     13  C   UNL     1     146.239 164.755 187.590  0.00  0.00    +0.003 C 
ATOM     14  C   UNL     1     146.444 165.204 186.122  0.00  0.00    +0.112 C 
ATOM     15  O   UNL     1     147.811 164.884 185.757  0.00  0.00    -0.458 OA
ATOM     16  C   UNL     1     148.035 163.847 184.920  0.00  0.00    +0.332 C 
ATOM     17  O   UNL     1     147.190 163.192 184.331  0.00  0.00    -0.246 OA
ATOM     18  C   UNL     1     149.479 163.534 184.842  0.00  0.00    +0.022 C 
ATOM     19  C   UNL     1     150.448 164.249 185.434  0.00  0.00    -0.055 C 
ATOM     20  C   UNL     1     151.834 163.840 185.414  0.00  0.00    -0.065 C 
ATOM     21  C   UNL     1     152.808 164.515 186.043  0.00  0.00    -0.081 C 
ATOM     22  C   UNL     1     154.234 164.032 186.116  0.00  0.00    +0.003 C 
ATOM     23  C   UNL     1     154.761 163.683 187.531  0.00  0.00    +0.111 C 
ATOM     24  C   UNL     1     153.988 162.641 188.401  0.00  0.00    +0.020 C 
ATOM     25  C   UNL     1     154.087 161.195 187.831  0.00  0.00    +0.064 C 
ATOM     26  H   UNL     1     152.756 160.591 189.467  0.00  0.00    +0.032 HD
ATOM     27  H   UNL     1     152.806 158.757 187.021  0.00  0.00    +0.027 HD
ATOM     28  H   UNL     1     151.942 158.451 188.515  0.00  0.00    +0.027 HD
ATOM     29  H   UNL     1     150.523 160.453 188.187  0.00  0.00    +0.029 HD
ATOM     30  H   UNL     1     151.405 160.890 186.751  0.00  0.00    +0.029 HD
ATOM     31  H   UNL     1     150.730 158.501 185.834  0.00  0.00    +0.064 HD
ATOM     32  H   UNL     1     147.699 159.938 187.178  0.00  0.00    +0.057 HD
ATOM     33  H   UNL     1     145.850 158.409 187.656  0.00  0.00    +0.031 HD
ATOM     34  H   UNL     1     146.867 157.267 188.479  0.00  0.00    +0.031 HD
ATOM     35  H   UNL     1     145.461 158.618 190.007  0.00  0.00    +0.030 HD
ATOM     36  H   UNL     1     147.269 161.007 189.391  0.00  0.00    +0.030 HD
ATOM     37  H   UNL     1     145.979 160.918 190.585  0.00  0.00    +0.030 HD
ATOM     38  H   UNL     1     145.503 160.670 187.562  0.00  0.00    +0.064 HD
ATOM     39  H   UNL     1     144.579 163.115 189.113  0.00  0.00    +0.059 HD
ATOM     40  H   UNL     1     146.894 162.680 187.147  0.00  0.00    +0.057 HD
ATOM     41  H   UNL     1     145.319 165.200 187.991  0.00  0.00    +0.034 HD
ATOM     42  H   UNL     1     147.080 165.097 188.206  0.00  0.00    +0.034 HD
ATOM     43  H   UNL     1     145.728 164.664 185.491  0.00  0.00    +0.074 HD
ATOM     44  H   UNL     1     149.700 162.626 184.294  0.00  0.00    +0.069 HD
ATOM     45  H   UNL     1     150.209 165.150 185.993  0.00  0.00    +0.062 HD
ATOM     46  H   UNL     1     152.072 162.899 184.916  0.00  0.00    +0.061 HD
ATOM     47  H   UNL     1     152.592 165.442 186.572  0.00  0.00    +0.057 HD
ATOM     48  H   UNL     1     154.392 163.191 185.435  0.00  0.00    +0.034 HD
ATOM     49  H   UNL     1     154.853 164.848 185.717  0.00  0.00    +0.034 HD
ATOM     50  H   UNL     1     155.780 163.301 187.377  0.00  0.00    +0.074 HD
ATOM     51  H   UNL     1     154.506 162.610 189.370  0.00  0.00    +0.036 HD
ATOM     52  H   UNL     1     155.157 160.944 187.849  0.00  0.00    +0.060 HD
ENDROOT
BRANCH   1  53
ATOM     53  C   UNL     1     154.318 159.188 189.345  0.00  0.00    -0.060 C 
ATOM     54  H   UNL     1     154.752 158.472 188.639  0.00  0.00    +0.023 HD
ATOM     55  H   UNL     1     155.133 159.767 189.793  0.00  0.00    +0.023 HD
ATOM     56  H   UNL     1     153.837 158.623 190.151  0.00  0.00    +0.023 HD
ENDBRANCH   1  53
BRANCH   5  57
ATOM     57  C   UNL     1     149.531 157.023 187.702  0.00  0.00    -0.041 C 
ATOM     58  H   UNL     1     149.653 156.977 188.790  0.00  0.00    +0.028 HD
ATOM     59  H   UNL     1     148.784 156.284 187.405  0.00  0.00    +0.028 HD
ATOM     60  H   UNL     1     150.485 156.718 187.272  0.00  0.00    +0.028 HD
ENDBRANCH   5  57
BRANCH  24  61
ATOM     61  C   UNL     1     152.566 163.093 188.762  0.00  0.00    -0.057 C 
ATOM     62  H   UNL     1     152.495 164.186 188.770  0.00  0.00    +0.023 HD
ATOM     63  H   UNL     1     152.257 162.747 189.749  0.00  0.00    +0.023 HD
ATOM     64  H   UNL     1     151.832 162.754 188.025  0.00  0.00    +0.023 HD
ENDBRANCH  24  61
BRANCH   8  65
ATOM     65  C   UNL     1     147.476 158.655 190.704  0.00  0.00    -0.062 C 
ATOM     66  H   UNL     1     147.472 159.372 191.533  0.00  0.00    +0.023 HD
ATOM     67  H   UNL     1     147.301 157.656 191.116  0.00  0.00    +0.023 HD
ATOM     68  H   UNL     1     148.477 158.666 190.262  0.00  0.00    +0.023 HD
ENDBRANCH   8  65
BRANCH  14  69
ATOM     69  C   UNL     1     146.254 166.750 185.959  0.00  0.00    +0.020 C 
ATOM     70  H   UNL     1     146.404 166.987 184.897  0.00  0.00    +0.036 HD
BRANCH  69  71
ATOM     71  C   UNL     1     144.832 167.167 186.354  0.00  0.00    -0.057 C 
ATOM     72  H   UNL     1     144.545 166.785 187.334  0.00  0.00    +0.023 HD
ATOM     73  H   UNL     1     144.092 166.815 185.630  0.00  0.00    +0.023 HD
ATOM     74  H   UNL     1     144.745 168.258 186.414  0.00  0.00    +0.023 HD
ENDBRANCH  69  71
BRANCH  69  75
ATOM     75  C   UNL     1     147.371 167.486 186.753  0.00  0.00    +0.064 C 
ATOM     76  H   UNL     1     147.629 166.889 187.637  0.00  0.00    +0.060 HD
BRANCH  75  77
ATOM     77  C   UNL     1     147.153 168.960 187.199  0.00  0.00    -0.017 C 
ATOM     78  H   UNL     1     148.153 169.376 187.392  0.00  0.00    +0.032 HD
BRANCH  77  79
ATOM     79  C   UNL     1     146.559 169.859 186.108  0.00  0.00    -0.060 C 
ATOM     80  H   UNL     1     145.792 170.518 186.527  0.00  0.00    +0.023 HD
ATOM     81  H   UNL     1     147.323 170.507 185.667  0.00  0.00    +0.023 HD
ATOM     82  H   UNL     1     146.087 169.291 185.305  0.00  0.00    +0.023 HD
ENDBRANCH  77  79
BRANCH  77  83
ATOM     83  C   UNL     1     146.417 169.030 188.556  0.00  0.00    -0.045 C 
ATOM     84  H   UNL     1     145.894 168.076 188.701  0.00  0.00    +0.027 HD
ATOM     85  H   UNL     1     145.648 169.804 188.533  0.00  0.00    +0.027 HD
BRANCH  83  86
ATOM     86  C   UNL     1     147.335 169.284 189.754  0.00  0.00    -0.015 C 
ATOM     87  H   UNL     1     146.835 169.949 190.469  0.00  0.00    +0.030 HD
ATOM     88  H   UNL     1     148.226 169.836 189.426  0.00  0.00    +0.030 HD
BRANCH  86  89
ATOM     89  C   UNL     1     147.831 168.015 190.477  0.00  0.00    +0.109 C 
ATOM     90  H   UNL     1     148.061 168.308 191.509  0.00  0.00    +0.074 HD
BRANCH  89  91
ATOM     91  C   UNL     1     149.101 167.340 189.892  0.00  0.00    +0.031 C 
ATOM     92  H   UNL     1     149.241 167.745 188.882  0.00  0.00    +0.037 HD
BRANCH  91  93
ATOM     93  C   UNL     1     148.942 165.816 189.782  0.00  0.00    -0.056 C 
ATOM     94  H   UNL     1     149.474 165.302 190.589  0.00  0.00    +0.023 HD
ATOM     95  H   UNL     1     149.333 165.442 188.831  0.00  0.00    +0.023 HD
ATOM     96  H   UNL     1     147.893 165.509 189.830  0.00  0.00    +0.023 HD
ENDBRANCH  91  93
BRANCH  91  97
ATOM     97  C   UNL     1     150.370 167.686 190.737  0.00  0.00    +0.115 C 
ATOM     98  H   UNL     1     150.908 168.482 190.209  0.00  0.00    +0.074 HD
BRANCH  97  99
ATOM     99  C   UNL     1     150.048 168.200 192.173  0.00  0.00    +0.013 C 
ATOM    100  H   UNL     1     148.994 168.494 192.215  0.00  0.00    +0.038 HD
BRANCH  99 101
ATOM    101  C   UNL     1     150.859 169.460 192.505  0.00  0.00    -0.056 C 
ATOM    102  H   UNL     1     151.816 169.490 191.971  0.00  0.00    +0.024 HD
ATOM    103  H   UNL     1     151.079 169.507 193.579  0.00  0.00    +0.024 HD
ATOM    104  H   UNL     1     150.296 170.363 192.244  0.00  0.00    +0.024 HD
ENDBRANCH  99 101
BRANCH  99 105
ATOM    105  C   UNL     1     150.331 167.156 193.239  0.00  0.00    -0.064 C 
ATOM    106  C   UNL     1     149.416 166.709 194.107  0.00  0.00    -0.005 C 
ATOM    107  H   UNL     1     151.356 166.798 193.260  0.00  0.00    +0.059 HD
ATOM    108  H   UNL     1     148.399 167.101 194.046  0.00  0.00    +0.078 HD
BRANCH 106 109
ATOM    109  N   UNL     1     149.604 165.774 195.114  0.00  0.00    -0.284 N 
ATOM    110  C   UNL     1     150.582 164.787 195.127  0.00  0.00    +0.206 C 
ATOM    111  O   UNL     1     150.749 163.948 196.006  0.00  0.00    -0.279 OA
ATOM    112  H   UNL     1     151.247 164.805 194.253  0.00  0.00    +0.126 HD
BRANCH 109 113
ATOM    113  C   UNL     1     148.678 165.816 196.240  0.00  0.00    +0.007 C 
ATOM    114  H   UNL     1     147.943 166.618 196.144  0.00  0.00    +0.043 HD
ATOM    115  H   UNL     1     148.148 164.861 196.308  0.00  0.00    +0.043 HD
ATOM    116  H   UNL     1     149.265 165.978 197.148  0.00  0.00    +0.043 HD
ENDBRANCH 109 113
ENDBRANCH 106 109
ENDBRANCH  99 105
ENDBRANCH  97  99
BRANCH  97 117
ATOM    117  O   UNL     1     151.202 166.507 190.855  0.00  0.00    -0.461 OA
BRANCH 117 118
ATOM    118  C   UNL     1     152.504 166.613 190.471  0.00  0.00    +0.304 C 
ATOM    119  O   UNL     1     152.923 167.315 189.562  0.00  0.00    -0.251 OA
BRANCH 118 120
ATOM    120  C   UNL     1     153.366 165.755 191.343  0.00  0.00    +0.033 C 
ATOM    121  H   UNL     1     152.775 164.935 191.756  0.00  0.00    +0.034 HD
ATOM    122  H   UNL     1     154.210 165.367 190.766  0.00  0.00    +0.034 HD
ATOM    123  H   UNL     1     153.757 166.357 192.168  0.00  0.00    +0.034 HD
ENDBRANCH 118 120
ENDBRANCH 117 118
ENDBRANCH  97 117
ENDBRANCH  91  97
ENDBRANCH  89  91
BRANCH  89 124
ATOM    124  O   UNL     1     146.732 167.073 190.435  0.00  0.00    -0.460 OA
BRANCH 124 125
ATOM    125  C   UNL     1     146.005 166.906 191.572  0.00  0.00    +0.324 C 
ATOM    126  O   UNL     1     146.368 167.317 192.672  0.00  0.00    -0.249 OA
BRANCH 125 127
ATOM    127  C   UNL     1     144.634 166.243 191.342  0.00  0.00    +0.105 C 
ATOM    128  H   UNL     1     144.824 165.161 191.364  0.00  0.00    +0.058 HD
BRANCH 127 129
ATOM    129  C   UNL     1     144.148 166.563 189.921  0.00  0.00    -0.039 C 
ATOM    130  H   UNL     1     144.077 167.645 189.758  0.00  0.00    +0.025 HD
ATOM    131  H   UNL     1     144.807 166.137 189.158  0.00  0.00    +0.025 HD
ATOM    132  H   UNL     1     143.148 166.143 189.754  0.00  0.00    +0.025 HD
ENDBRANCH 127 129
BRANCH 127 133
ATOM    133  N   UNL     1     143.552 166.521 192.322  0.00  0.00    -0.296 NA
BRANCH 133 134
ATOM    134  C   UNL     1     142.591 165.442 192.507  0.00  0.00    -0.012 C 
ATOM    135  H   UNL     1     141.585 165.726 192.184  0.00  0.00    +0.039 HD
ATOM    136  H   UNL     1     142.537 165.099 193.543  0.00  0.00    +0.039 HD
ATOM    137  H   UNL     1     142.871 164.578 191.890  0.00  0.00    +0.039 HD
ENDBRANCH 133 134
BRANCH 133 138
ATOM    138  C   UNL     1     142.889 167.805 192.121  0.00  0.00    -0.012 C 
ATOM    139  H   UNL     1     142.647 168.277 193.078  0.00  0.00    +0.039 HD
ATOM    140  H   UNL     1     141.935 167.657 191.602  0.00  0.00    +0.039 HD
ATOM    141  H   UNL     1     143.479 168.510 191.529  0.00  0.00    +0.039 HD
ENDBRANCH 133 138
ENDBRANCH 127 133
ENDBRANCH 125 127
ENDBRANCH 124 125
ENDBRANCH  89 124
ENDBRANCH  86  89
ENDBRANCH  83  86
ENDBRANCH  77  83
ENDBRANCH  75  77
BRANCH  75 142
ATOM    142  O   UNL     1     148.551 167.479 185.929  0.00  0.00    -0.391 OA
ATOM    143  H   UNL     1     149.224 168.045 186.344  0.00  0.00    +0.210 HD
ENDBRANCH  75 142
ENDBRANCH  69  75
ENDBRANCH  14  69
BRANCH  25 144
ATOM    144  O   UNL     1     153.732 161.166 186.457  0.00  0.00    -0.391 OA
ATOM    145  H   UNL     1     152.805 160.878 186.395  0.00  0.00    +0.210 HD
ENDBRANCH  25 144
BRANCH  23 146
ATOM    146  O   UNL     1     154.864 164.947 188.242  0.00  0.00    -0.460 OA
BRANCH 146 147
ATOM    147  C   UNL     1     156.109 165.390 188.561  0.00  0.00    +0.327 C 
ATOM    148  O   UNL     1     156.338 166.189 189.466  0.00  0.00    -0.249 OA
BRANCH 147 149
ATOM    149  C   UNL     1     157.222 164.778 187.689  0.00  0.00    +0.131 C 
ATOM    150  H   UNL     1     156.676 164.141 186.979  0.00  0.00    +0.060 HD
BRANCH 149 151
ATOM    151  C   UNL     1     158.075 163.864 188.599  0.00  0.00    +0.073 C 
ATOM    152  H   UNL     1     159.111 164.223 188.655  0.00  0.00    +0.058 HD
ATOM    153  H   UNL     1     157.674 163.878 189.620  0.00  0.00    +0.058 HD
BRANCH 151 154
ATOM    154  O   UNL     1     158.049 162.511 188.132  0.00  0.00    -0.381 OA
BRANCH 154 155
ATOM    155  C   UNL     1     157.578 161.618 189.133  0.00  0.00    +0.037 C 
ATOM    156  H   UNL     1     157.361 160.636 188.705  0.00  0.00    +0.052 HD
ATOM    157  H   UNL     1     156.684 162.027 189.614  0.00  0.00    +0.052 HD
ATOM    158  H   UNL     1     158.360 161.505 189.889  0.00  0.00    +0.052 HD
ENDBRANCH 154 155
ENDBRANCH 151 154
ENDBRANCH 149 151
BRANCH 149 159
ATOM    159  N   UNL     1     157.941 165.815 186.880  0.00  0.00    -0.294 NA
BRANCH 159 160
ATOM    160  C   UNL     1     157.024 166.532 185.993  0.00  0.00    -0.012 C 
ATOM    161  H   UNL     1     156.944 166.078 185.001  0.00  0.00    +0.039 HD
ATOM    162  H   UNL     1     157.351 167.570 185.866  0.00  0.00    +0.039 HD
ATOM    163  H   UNL     1     156.024 166.580 186.434  0.00  0.00    +0.039 HD
ENDBRANCH 159 160
BRANCH 159 164
ATOM    164  C   UNL     1     159.076 165.292 186.125  0.00  0.00    -0.012 C 
ATOM    165  H   UNL     1     158.764 164.427 185.527  0.00  0.00    +0.039 HD
ATOM    166  H   UNL     1     159.898 164.968 186.771  0.00  0.00    +0.039 HD
ATOM    167  H   UNL     1     159.461 166.033 185.419  0.00  0.00    +0.039 HD
ENDBRANCH 159 164
ENDBRANCH 149 159
ENDBRANCH 147 149
ENDBRANCH 146 147
ENDBRANCH  23 146
BRANCH   4 168
ATOM    168  O   UNL     1     149.477 160.116 185.574  0.00  0.00    -0.376 OA
BRANCH 168 169
ATOM    169  C   UNL     1     149.524 159.723 184.207  0.00  0.00    +0.037 C 
ATOM    170  H   UNL     1     149.591 160.604 183.562  0.00  0.00    +0.052 HD
ATOM    171  H   UNL     1     150.364 159.051 184.015  0.00  0.00    +0.052 HD
ATOM    172  H   UNL     1     148.596 159.193 183.974  0.00  0.00    +0.052 HD
ENDBRANCH 168 169
ENDBRANCH   4 168
BRANCH  10 173
ATOM    173  O   UNL     1     143.961 160.643 188.944  0.00  0.00    -0.376 OA
BRANCH 173 174
ATOM    174  C   UNL     1     143.033 161.717 189.044  0.00  0.00    +0.037 C 
ATOM    175  H   UNL     1     143.575 162.650 188.865  0.00  0.00    +0.052 HD
ATOM    176  H   UNL     1     142.247 161.625 188.291  0.00  0.00    +0.052 HD
ATOM    177  H   UNL     1     142.596 161.758 190.045  0.00  0.00    +0.052 HD
ENDBRANCH 173 174
ENDBRANCH  10 173
TORSDOF 45
ENDMDL
MODEL 7
REMARK VINA RESULT:      -5.0      3.972     12.048
REMARK  Name = Aplyronine A_conf2
REMARK  45 active torsions:
REMARK  status: ('A' for Active; 'I' for Inactive)
REMARK    1  A    between atoms: C_1  and  C_2
REMARK    2  A    between atoms: C_5  and  O_75
REMARK    3  A    between atoms: C_6  and  C_74
REMARK    4  A    between atoms: C_9  and  C_73
REMARK    5  A    between atoms: C_11  and  O_71
REMARK    6  A    between atoms: C_15  and  C_39
REMARK    7  A    between atoms: C_24  and  O_29
REMARK    8  A    between atoms: C_25  and  C_28
REMARK    9  A    between atoms: C_26  and  O_27
REMARK   10  A    between atoms: O_29  and  C_30
REMARK   11  A    between atoms: C_30  and  C_32
REMARK   12  A    between atoms: C_32  and  C_33
REMARK   13  A    between atoms: C_32  and  N_36
REMARK   14  A    between atoms: C_33  and  O_34
REMARK   15  A    between atoms: O_34  and  C_35
REMARK   16  A    between atoms: N_36  and  C_37
REMARK   17  A    between atoms: N_36  and  C_38
REMARK   18  A    between atoms: C_39  and  C_40
REMARK   19  A    between atoms: C_39  and  C_41
REMARK   20  A    between atoms: C_41  and  C_42
REMARK   21  A    between atoms: C_41  and  O_70
REMARK   22  A    between atoms: C_42  and  C_43
REMARK   23  A    between atoms: C_42  and  C_44
REMARK   24  A    between atoms: C_44  and  C_45
REMARK   25  A    between atoms: C_45  and  C_46
REMARK   26  A    between atoms: C_46  and  C_47
REMARK   27  A    between atoms: C_46  and  O_62
REMARK   28  A    between atoms: C_47  and  C_48
REMARK   29  A    between atoms: C_47  and  C_49
REMARK   30  A    between atoms: C_49  and  C_50
REMARK   31  A    between atoms: C_49  and  O_58
REMARK   32  A    between atoms: C_50  and  C_51
REMARK   33  A    between atoms: C_50  and  C_52
REMARK   34  A    between atoms: C_53  and  N_54
REMARK   35  A    between atoms: N_54  and  C_55
REMARK   36  A    between atoms: O_58  and  C_59
REMARK   37  A    between atoms: C_59  and  C_61
REMARK   38  A    between atoms: O_62  and  C_63
REMARK   39  A    between atoms: C_63  and  C_65
REMARK   40  A    between atoms: C_65  and  C_66
REMARK   41  A    between atoms: C_65  and  N_67
REMARK   42  A    between atoms: N_67  and  C_68
REMARK   43  A    between atoms: N_67  and  C_69
REMARK   44  A    between atoms: O_71  and  C_72
REMARK   45  A    between atoms: O_75  and  C_76
REMARK                            x       y       z     vdW  Elec       q    Type
REMARK                         _______ _______ _______ _____ _____    ______ ____
ROOT
ATOM      1  C   UNL     1     148.452 170.760 190.844  0.00  0.00    -0.017 C 
ATOM      2  C   UNL     1     146.975 171.223 190.828  0.00  0.00    -0.045 C 
ATOM      3  C   UNL     1     145.974 170.109 190.492  0.00  0.00    -0.022 C 
ATOM      4  C   UNL     1     144.500 170.552 190.591  0.00  0.00    +0.079 C 
ATOM      5  C   UNL     1     143.994 171.196 189.295  0.00  0.00    -0.048 C 
ATOM      6  C   UNL     1     143.403 170.451 188.335  0.00  0.00    -0.082 C 
ATOM      7  C   UNL     1     142.809 170.872 187.018  0.00  0.00    -0.032 C 
ATOM      8  C   UNL     1     143.574 170.365 185.775  0.00  0.00    -0.038 C 
ATOM      9  C   UNL     1     143.872 168.846 185.767  0.00  0.00    -0.020 C 
ATOM     10  C   UNL     1     142.636 167.951 185.961  0.00  0.00    +0.077 C 
ATOM     11  C   UNL     1     143.057 166.504 186.048  0.00  0.00    -0.059 C 
ATOM     12  C   UNL     1     143.440 165.935 187.205  0.00  0.00    -0.082 C 
ATOM     13  C   UNL     1     143.842 164.492 187.374  0.00  0.00    +0.003 C 
ATOM     14  C   UNL     1     143.249 163.867 188.661  0.00  0.00    +0.112 C 
ATOM     15  O   UNL     1     143.966 164.432 189.789  0.00  0.00    -0.458 OA
ATOM     16  C   UNL     1     143.339 165.340 190.569  0.00  0.00    +0.332 C 
ATOM     17  O   UNL     1     142.167 165.674 190.499  0.00  0.00    -0.246 OA
ATOM     18  C   UNL     1     144.286 165.964 191.518  0.00  0.00    +0.022 C 
ATOM     19  C   UNL     1     145.570 165.602 191.664  0.00  0.00    -0.055 C 
ATOM     20  C   UNL     1     146.482 166.315 192.531  0.00  0.00    -0.065 C 
ATOM     21  C   UNL     1     147.781 165.998 192.649  0.00  0.00    -0.081 C 
ATOM     22  C   UNL     1     148.756 166.806 193.466  0.00  0.00    +0.003 C 
ATOM     23  C   UNL     1     149.895 167.497 192.676  0.00  0.00    +0.111 C 
ATOM     24  C   UNL     1     149.537 168.459 191.498  0.00  0.00    +0.020 C 
ATOM     25  C   UNL     1     148.860 169.774 191.986  0.00  0.00    +0.064 C 
ATOM     26  H   UNL     1     148.664 170.312 189.868  0.00  0.00    +0.032 HD
ATOM     27  H   UNL     1     146.719 171.678 191.792  0.00  0.00    +0.027 HD
ATOM     28  H   UNL     1     146.875 172.015 190.080  0.00  0.00    +0.027 HD
ATOM     29  H   UNL     1     146.186 169.713 189.490  0.00  0.00    +0.029 HD
ATOM     30  H   UNL     1     146.116 169.262 191.170  0.00  0.00    +0.029 HD
ATOM     31  H   UNL     1     144.381 171.243 191.436  0.00  0.00    +0.064 HD
ATOM     32  H   UNL     1     143.318 169.381 188.528  0.00  0.00    +0.057 HD
ATOM     33  H   UNL     1     141.779 170.494 186.985  0.00  0.00    +0.031 HD
ATOM     34  H   UNL     1     142.707 171.961 186.951  0.00  0.00    +0.031 HD
ATOM     35  H   UNL     1     142.949 170.591 184.900  0.00  0.00    +0.030 HD
ATOM     36  H   UNL     1     144.620 168.622 186.539  0.00  0.00    +0.030 HD
ATOM     37  H   UNL     1     144.339 168.603 184.803  0.00  0.00    +0.030 HD
ATOM     38  H   UNL     1     142.108 168.230 186.879  0.00  0.00    +0.064 HD
ATOM     39  H   UNL     1     143.037 165.928 185.126  0.00  0.00    +0.059 HD
ATOM     40  H   UNL     1     143.477 166.560 188.096  0.00  0.00    +0.057 HD
ATOM     41  H   UNL     1     143.518 163.917 186.497  0.00  0.00    +0.034 HD
ATOM     42  H   UNL     1     144.938 164.462 187.416  0.00  0.00    +0.034 HD
ATOM     43  H   UNL     1     142.181 164.113 188.706  0.00  0.00    +0.074 HD
ATOM     44  H   UNL     1     143.866 166.795 192.072  0.00  0.00    +0.069 HD
ATOM     45  H   UNL     1     145.982 164.776 191.091  0.00  0.00    +0.062 HD
ATOM     46  H   UNL     1     146.095 167.189 193.055  0.00  0.00    +0.061 HD
ATOM     47  H   UNL     1     148.198 165.147 192.114  0.00  0.00    +0.057 HD
ATOM     48  H   UNL     1     148.228 167.536 194.087  0.00  0.00    +0.034 HD
ATOM     49  H   UNL     1     149.215 166.102 194.176  0.00  0.00    +0.034 HD
ATOM     50  H   UNL     1     150.460 168.075 193.422  0.00  0.00    +0.074 HD
ATOM     51  H   UNL     1     150.495 168.769 191.057  0.00  0.00    +0.036 HD
ATOM     52  H   UNL     1     149.601 170.266 192.630  0.00  0.00    +0.060 HD
ENDROOT
BRANCH   1  53
ATOM     53  C   UNL     1     149.363 172.000 190.909  0.00  0.00    -0.060 C 
ATOM     54  H   UNL     1     148.775 172.924 190.913  0.00  0.00    +0.023 HD
ATOM     55  H   UNL     1     149.983 171.982 191.812  0.00  0.00    +0.023 HD
ATOM     56  H   UNL     1     150.040 172.031 190.047  0.00  0.00    +0.023 HD
ENDBRANCH   1  53
BRANCH   5  57
ATOM     57  C   UNL     1     144.174 172.688 189.205  0.00  0.00    -0.041 C 
ATOM     58  H   UNL     1     145.114 172.930 188.698  0.00  0.00    +0.028 HD
ATOM     59  H   UNL     1     143.351 173.139 188.644  0.00  0.00    +0.028 HD
ATOM     60  H   UNL     1     144.213 173.175 190.179  0.00  0.00    +0.028 HD
ENDBRANCH   5  57
BRANCH  24  61
ATOM     61  C   UNL     1     148.814 167.753 190.342  0.00  0.00    -0.057 C 
ATOM     62  H   UNL     1     147.821 167.413 190.654  0.00  0.00    +0.023 HD
ATOM     63  H   UNL     1     149.355 166.874 189.989  0.00  0.00    +0.023 HD
ATOM     64  H   UNL     1     148.646 168.426 189.496  0.00  0.00    +0.023 HD
ENDBRANCH  24  61
BRANCH   8  65
ATOM     65  C   UNL     1     144.887 171.140 185.600  0.00  0.00    -0.062 C 
ATOM     66  H   UNL     1     144.769 171.945 184.866  0.00  0.00    +0.023 HD
ATOM     67  H   UNL     1     145.220 171.585 186.543  0.00  0.00    +0.023 HD
ATOM     68  H   UNL     1     145.681 170.478 185.242  0.00  0.00    +0.023 HD
ENDBRANCH   8  65
BRANCH  14  69
ATOM     69  C   UNL     1     143.450 162.314 188.695  0.00  0.00    +0.020 C 
ATOM     70  H   UNL     1     143.600 162.028 189.745  0.00  0.00    +0.036 HD
BRANCH  69  71
ATOM     71  C   UNL     1     142.204 161.593 188.168  0.00  0.00    -0.057 C 
ATOM     72  H   UNL     1     142.420 160.574 187.845  0.00  0.00    +0.023 HD
ATOM     73  H   UNL     1     141.758 162.124 187.321  0.00  0.00    +0.023 HD
ATOM     74  H   UNL     1     141.439 161.512 188.948  0.00  0.00    +0.023 HD
ENDBRANCH  69  71
BRANCH  69  75
ATOM     75  C   UNL     1     144.758 161.955 187.933  0.00  0.00    +0.064 C 
ATOM     76  H   UNL     1     144.940 162.715 187.163  0.00  0.00    +0.060 HD
BRANCH  75  77
ATOM     77  C   UNL     1     144.905 160.550 187.283  0.00  0.00    -0.017 C 
ATOM     78  H   UNL     1     144.128 159.916 187.737  0.00  0.00    +0.032 HD
BRANCH  77  79
ATOM     79  C   UNL     1     144.601 160.523 185.780  0.00  0.00    -0.060 C 
ATOM     80  H   UNL     1     145.499 160.764 185.201  0.00  0.00    +0.023 HD
ATOM     81  H   UNL     1     144.276 159.529 185.457  0.00  0.00    +0.023 HD
ATOM     82  H   UNL     1     143.834 161.243 185.493  0.00  0.00    +0.023 HD
ENDBRANCH  77  79
BRANCH  77  83
ATOM     83  C   UNL     1     146.246 159.890 187.676  0.00  0.00    -0.045 C 
ATOM     84  H   UNL     1     146.028 158.864 188.003  0.00  0.00    +0.027 HD
ATOM     85  H   UNL     1     146.685 160.401 188.533  0.00  0.00    +0.027 HD
BRANCH  83  86
ATOM     86  C   UNL     1     147.277 159.846 186.546  0.00  0.00    -0.015 C 
ATOM     87  H   UNL     1     146.764 159.854 185.575  0.00  0.00    +0.030 HD
ATOM     88  H   UNL     1     147.816 158.890 186.575  0.00  0.00    +0.030 HD
BRANCH  86  89
ATOM     89  C   UNL     1     148.339 160.965 186.587  0.00  0.00    +0.109 C 
ATOM     90  H   UNL     1     148.179 161.518 187.521  0.00  0.00    +0.074 HD
BRANCH  89  91
ATOM     91  C   UNL     1     148.300 161.995 185.425  0.00  0.00    +0.031 C 
ATOM     92  H   UNL     1     147.458 161.715 184.779  0.00  0.00    +0.037 HD
BRANCH  91  93
ATOM     93  C   UNL     1     149.584 161.959 184.584  0.00  0.00    -0.056 C 
ATOM     94  H   UNL     1     149.623 161.063 183.955  0.00  0.00    +0.023 HD
ATOM     95  H   UNL     1     150.476 161.960 185.219  0.00  0.00    +0.023 HD
ATOM     96  H   UNL     1     149.669 162.829 183.927  0.00  0.00    +0.023 HD
ENDBRANCH  91  93
BRANCH  91  97
ATOM     97  C   UNL     1     148.047 163.443 185.957  0.00  0.00    +0.115 C 
ATOM     98  H   UNL     1     148.933 164.041 185.709  0.00  0.00    +0.074 HD
BRANCH  97  99
ATOM     99  C   UNL     1     146.808 164.140 185.318  0.00  0.00    +0.013 C 
ATOM    100  H   UNL     1     146.040 164.268 186.088  0.00  0.00    +0.038 HD
BRANCH  99 101
ATOM    101  C   UNL     1     146.180 163.263 184.226  0.00  0.00    -0.056 C 
ATOM    102  H   UNL     1     145.097 163.411 184.147  0.00  0.00    +0.024 HD
ATOM    103  H   UNL     1     146.353 162.199 184.436  0.00  0.00    +0.024 HD
ATOM    104  H   UNL     1     146.626 163.482 183.250  0.00  0.00    +0.024 HD
ENDBRANCH  99 101
BRANCH  99 105
ATOM    105  C   UNL     1     147.152 165.487 184.709  0.00  0.00    -0.064 C 
ATOM    106  C   UNL     1     146.976 166.657 185.336  0.00  0.00    -0.005 C 
ATOM    107  H   UNL     1     147.546 165.439 183.698  0.00  0.00    +0.059 HD
ATOM    108  H   UNL     1     146.575 166.652 186.351  0.00  0.00    +0.078 HD
BRANCH 106 109
ATOM    109  N   UNL     1     147.250 167.922 184.839  0.00  0.00    -0.284 N 
ATOM    110  C   UNL     1     146.778 168.438 183.638  0.00  0.00    +0.206 C 
ATOM    111  O   UNL     1     147.024 169.551 183.184  0.00  0.00    -0.279 OA
ATOM    112  H   UNL     1     146.121 167.753 183.084  0.00  0.00    +0.126 HD
BRANCH 109 113
ATOM    113  C   UNL     1     148.132 168.771 185.633  0.00  0.00    +0.007 C 
ATOM    114  H   UNL     1     148.884 168.195 186.175  0.00  0.00    +0.043 HD
ATOM    115  H   UNL     1     148.641 169.480 184.974  0.00  0.00    +0.043 HD
ATOM    116  H   UNL     1     147.512 169.314 186.352  0.00  0.00    +0.043 HD
ENDBRANCH 109 113
ENDBRANCH 106 109
ENDBRANCH  99 105
ENDBRANCH  97  99
BRANCH  97 117
ATOM    117  O   UNL     1     147.852 163.398 187.391  0.00  0.00    -0.461 OA
BRANCH 117 118
ATOM    118  C   UNL     1     147.994 164.562 188.082  0.00  0.00    +0.304 C 
ATOM    119  O   UNL     1     147.123 165.107 188.745  0.00  0.00    -0.251 OA
BRANCH 118 120
ATOM    120  C   UNL     1     149.392 165.077 187.935  0.00  0.00    +0.033 C 
ATOM    121  H   UNL     1     149.370 166.149 187.724  0.00  0.00    +0.034 HD
ATOM    122  H   UNL     1     149.960 164.877 188.848  0.00  0.00    +0.034 HD
ATOM    123  H   UNL     1     149.880 164.564 187.102  0.00  0.00    +0.034 HD
ENDBRANCH 118 120
ENDBRANCH 117 118
ENDBRANCH  97 117
ENDBRANCH  91  97
ENDBRANCH  89  91
BRANCH  89 124
ATOM    124  O   UNL     1     149.624 160.299 186.587  0.00  0.00    -0.460 OA
BRANCH 124 125
ATOM    125  C   UNL     1     150.440 160.509 187.654  0.00  0.00    +0.324 C 
ATOM    126  O   UNL     1     150.818 161.625 188.006  0.00  0.00    -0.249 OA
BRANCH 125 127
ATOM    127  C   UNL     1     150.766 159.231 188.449  0.00  0.00    +0.105 C 
ATOM    128  H   UNL     1     150.963 159.568 189.477  0.00  0.00    +0.058 HD
BRANCH 127 129
ATOM    129  C   UNL     1     152.084 158.635 187.934  0.00  0.00    -0.039 C 
ATOM    130  H   UNL     1     152.065 157.539 187.964  0.00  0.00    +0.025 HD
ATOM    131  H   UNL     1     152.303 158.953 186.909  0.00  0.00    +0.025 HD
ATOM    132  H   UNL     1     152.923 158.963 188.560  0.00  0.00    +0.025 HD
ENDBRANCH 127 129
BRANCH 127 133
ATOM    133  N   UNL     1     149.726 158.172 188.524  0.00  0.00    -0.296 NA
BRANCH 133 134
ATOM    134  C   UNL     1     148.906 158.192 189.729  0.00  0.00    -0.012 C 
ATOM    135  H   UNL     1     148.164 158.997 189.707  0.00  0.00    +0.039 HD
ATOM    136  H   UNL     1     149.499 158.294 190.640  0.00  0.00    +0.039 HD
ATOM    137  H   UNL     1     148.334 157.259 189.811  0.00  0.00    +0.039 HD
ENDBRANCH 133 134
BRANCH 133 138
ATOM    138  C   UNL     1     150.226 156.833 188.235  0.00  0.00    -0.012 C 
ATOM    139  H   UNL     1     151.321 156.816 188.224  0.00  0.00    +0.039 HD
ATOM    140  H   UNL     1     149.905 156.520 187.234  0.00  0.00    +0.039 HD
ATOM    141  H   UNL     1     149.877 156.076 188.942  0.00  0.00    +0.039 HD
ENDBRANCH 133 138
ENDBRANCH 127 133
ENDBRANCH 125 127
ENDBRANCH 124 125
ENDBRANCH  89 124
ENDBRANCH  86  89
ENDBRANCH  83  86
ENDBRANCH  77  83
ENDBRANCH  75  77
BRANCH  75 142
ATOM    142  O   UNL     1     145.844 162.088 188.868  0.00  0.00    -0.391 OA
ATOM    143  H   UNL     1     146.004 163.033 189.026  0.00  0.00    +0.210 HD
ENDBRANCH  75 142
ENDBRANCH  69  75
ENDBRANCH  14  69
BRANCH  25 144
ATOM    144  O   UNL     1     147.765 169.492 192.845  0.00  0.00    -0.391 OA
ATOM    145  H   UNL     1     148.020 168.746 193.416  0.00  0.00    +0.210 HD
ENDBRANCH  25 144
BRANCH  23 146
ATOM    146  O   UNL     1     150.757 166.427 192.200  0.00  0.00    -0.460 OA
BRANCH 146 147
ATOM    147  C   UNL     1     152.001 166.766 191.768  0.00  0.00    +0.327 C 
ATOM    148  O   UNL     1     152.753 167.523 192.379  0.00  0.00    -0.249 OA
BRANCH 147 149
ATOM    149  C   UNL     1     152.396 166.094 190.440  0.00  0.00    +0.131 C 
ATOM    150  H   UNL     1     151.430 165.863 189.968  0.00  0.00    +0.060 HD
BRANCH 149 151
ATOM    151  C   UNL     1     153.096 164.760 190.784  0.00  0.00    +0.073 C 
ATOM    152  H   UNL     1     154.187 164.874 190.774  0.00  0.00    +0.058 HD
ATOM    153  H   UNL     1     152.815 164.443 191.796  0.00  0.00    +0.058 HD
BRANCH 151 154
ATOM    154  O   UNL     1     152.703 163.727 189.873  0.00  0.00    -0.381 OA
BRANCH 154 155
ATOM    155  C   UNL     1     153.810 162.933 189.468  0.00  0.00    +0.037 C 
ATOM    156  H   UNL     1     154.599 163.558 189.041  0.00  0.00    +0.052 HD
ATOM    157  H   UNL     1     153.490 162.179 188.743  0.00  0.00    +0.052 HD
ATOM    158  H   UNL     1     154.207 162.422 190.349  0.00  0.00    +0.052 HD
ENDBRANCH 154 155
ENDBRANCH 151 154
ENDBRANCH 149 151
BRANCH 149 159
ATOM    159  N   UNL     1     153.114 167.036 189.521  0.00  0.00    -0.294 NA
BRANCH 159 160
ATOM    160  C   UNL     1     152.374 167.239 188.276  0.00  0.00    -0.012 C 
ATOM    161  H   UNL     1     151.293 167.118 188.394  0.00  0.00    +0.039 HD
ATOM    162  H   UNL     1     152.713 166.532 187.511  0.00  0.00    +0.039 HD
ATOM    163  H   UNL     1     152.568 168.237 187.873  0.00  0.00    +0.039 HD
ENDBRANCH 159 160
BRANCH 159 164
ATOM    164  C   UNL     1     154.492 166.646 189.236  0.00  0.00    -0.012 C 
ATOM    165  H   UNL     1     155.185 167.409 189.610  0.00  0.00    +0.039 HD
ATOM    166  H   UNL     1     154.682 166.523 188.165  0.00  0.00    +0.039 HD
ATOM    167  H   UNL     1     154.756 165.713 189.744  0.00  0.00    +0.039 HD
ENDBRANCH 159 164
ENDBRANCH 149 159
ENDBRANCH 147 149
ENDBRANCH 146 147
ENDBRANCH  23 146
BRANCH   4 168
ATOM    168  O   UNL     1     143.747 169.360 190.891  0.00  0.00    -0.376 OA
BRANCH 168 169
ATOM    169  C   UNL     1     142.552 169.620 191.619  0.00  0.00    +0.037 C 
ATOM    170  H   UNL     1     142.670 169.314 192.662  0.00  0.00    +0.052 HD
ATOM    171  H   UNL     1     142.276 170.677 191.566  0.00  0.00    +0.052 HD
ATOM    172  H   UNL     1     141.747 169.030 191.174  0.00  0.00    +0.052 HD
ENDBRANCH 168 169
ENDBRANCH   4 168
BRANCH  10 173
ATOM    173  O   UNL     1     141.767 168.125 184.839  0.00  0.00    -0.376 OA
BRANCH 173 174
ATOM    174  C   UNL     1     140.444 167.668 185.092  0.00  0.00    +0.037 C 
ATOM    175  H   UNL     1     139.823 168.538 185.322  0.00  0.00    +0.052 HD
ATOM    176  H   UNL     1     140.028 167.170 184.213  0.00  0.00    +0.052 HD
ATOM    177  H   UNL     1     140.427 166.994 185.953  0.00  0.00    +0.052 HD
ENDBRANCH 173 174
ENDBRANCH  10 173
TORSDOF 45
ENDMDL
MODEL 8
REMARK VINA RESULT:      -5.0      3.731      9.159
REMARK  Name = Aplyronine A_conf2
REMARK  45 active torsions:
REMARK  status: ('A' for Active; 'I' for Inactive)
REMARK    1  A    between atoms: C_1  and  C_2
REMARK    2  A    between atoms: C_5  and  O_75
REMARK    3  A    between atoms: C_6  and  C_74
REMARK    4  A    between atoms: C_9  and  C_73
REMARK    5  A    between atoms: C_11  and  O_71
REMARK    6  A    between atoms: C_15  and  C_39
REMARK    7  A    between atoms: C_24  and  O_29
REMARK    8  A    between atoms: C_25  and  C_28
REMARK    9  A    between atoms: C_26  and  O_27
REMARK   10  A    between atoms: O_29  and  C_30
REMARK   11  A    between atoms: C_30  and  C_32
REMARK   12  A    between atoms: C_32  and  C_33
REMARK   13  A    between atoms: C_32  and  N_36
REMARK   14  A    between atoms: C_33  and  O_34
REMARK   15  A    between atoms: O_34  and  C_35
REMARK   16  A    between atoms: N_36  and  C_37
REMARK   17  A    between atoms: N_36  and  C_38
REMARK   18  A    between atoms: C_39  and  C_40
REMARK   19  A    between atoms: C_39  and  C_41
REMARK   20  A    between atoms: C_41  and  C_42
REMARK   21  A    between atoms: C_41  and  O_70
REMARK   22  A    between atoms: C_42  and  C_43
REMARK   23  A    between atoms: C_42  and  C_44
REMARK   24  A    between atoms: C_44  and  C_45
REMARK   25  A    between atoms: C_45  and  C_46
REMARK   26  A    between atoms: C_46  and  C_47
REMARK   27  A    between atoms: C_46  and  O_62
REMARK   28  A    between atoms: C_47  and  C_48
REMARK   29  A    between atoms: C_47  and  C_49
REMARK   30  A    between atoms: C_49  and  C_50
REMARK   31  A    between atoms: C_49  and  O_58
REMARK   32  A    between atoms: C_50  and  C_51
REMARK   33  A    between atoms: C_50  and  C_52
REMARK   34  A    between atoms: C_53  and  N_54
REMARK   35  A    between atoms: N_54  and  C_55
REMARK   36  A    between atoms: O_58  and  C_59
REMARK   37  A    between atoms: C_59  and  C_61
REMARK   38  A    between atoms: O_62  and  C_63
REMARK   39  A    between atoms: C_63  and  C_65
REMARK   40  A    between atoms: C_65  and  C_66
REMARK   41  A    between atoms: C_65  and  N_67
REMARK   42  A    between atoms: N_67  and  C_68
REMARK   43  A    between atoms: N_67  and  C_69
REMARK   44  A    between atoms: O_71  and  C_72
REMARK   45  A    between atoms: O_75  and  C_76
REMARK                            x       y       z     vdW  Elec       q    Type
REMARK                         _______ _______ _______ _____ _____    ______ ____
ROOT
ATOM      1  C   UNL     1     152.664 161.212 187.670  0.00  0.00    -0.017 C 
ATOM      2  C   UNL     1     151.893 160.073 186.958  0.00  0.00    -0.045 C 
ATOM      3  C   UNL     1     150.397 160.356 186.765  0.00  0.00    -0.022 C 
ATOM      4  C   UNL     1     149.662 159.269 185.955  0.00  0.00    +0.079 C 
ATOM      5  C   UNL     1     149.179 158.110 186.834  0.00  0.00    -0.048 C 
ATOM      6  C   UNL     1     147.946 158.122 187.385  0.00  0.00    -0.082 C 
ATOM      7  C   UNL     1     147.261 157.091 188.240  0.00  0.00    -0.032 C 
ATOM      8  C   UNL     1     147.011 157.529 189.701  0.00  0.00    -0.038 C 
ATOM      9  C   UNL     1     146.317 158.903 189.861  0.00  0.00    -0.020 C 
ATOM     10  C   UNL     1     144.993 159.043 189.091  0.00  0.00    +0.077 C 
ATOM     11  C   UNL     1     144.465 160.451 189.228  0.00  0.00    -0.059 C 
ATOM     12  C   UNL     1     144.851 161.447 188.410  0.00  0.00    -0.082 C 
ATOM     13  C   UNL     1     144.344 162.866 188.465  0.00  0.00    +0.003 C 
ATOM     14  C   UNL     1     144.061 163.441 187.055  0.00  0.00    +0.112 C 
ATOM     15  O   UNL     1     145.343 163.686 186.421  0.00  0.00    -0.458 OA
ATOM     16  C   UNL     1     145.745 162.861 185.430  0.00  0.00    +0.332 C 
ATOM     17  O   UNL     1     145.092 161.968 184.915  0.00  0.00    -0.246 OA
ATOM     18  C   UNL     1     147.154 163.126 185.063  0.00  0.00    +0.022 C 
ATOM     19  C   UNL     1     147.900 164.121 185.567  0.00  0.00    -0.055 C 
ATOM     20  C   UNL     1     149.303 164.272 185.254  0.00  0.00    -0.065 C 
ATOM     21  C   UNL     1     150.076 165.230 185.789  0.00  0.00    -0.081 C 
ATOM     22  C   UNL     1     151.561 165.323 185.550  0.00  0.00    +0.003 C 
ATOM     23  C   UNL     1     152.462 165.121 186.794  0.00  0.00    +0.111 C 
ATOM     24  C   UNL     1     152.319 163.816 187.641  0.00  0.00    +0.020 C 
ATOM     25  C   UNL     1     152.813 162.551 186.878  0.00  0.00    +0.064 C 
ATOM     26  H   UNL     1     152.164 161.395 188.626  0.00  0.00    +0.032 HD
ATOM     27  H   UNL     1     152.361 159.858 185.989  0.00  0.00    +0.027 HD
ATOM     28  H   UNL     1     151.999 159.164 187.558  0.00  0.00    +0.027 HD
ATOM     29  H   UNL     1     149.918 160.490 187.745  0.00  0.00    +0.029 HD
ATOM     30  H   UNL     1     150.260 161.310 186.248  0.00  0.00    +0.029 HD
ATOM     31  H   UNL     1     150.319 158.900 185.157  0.00  0.00    +0.064 HD
ATOM     32  H   UNL     1     147.327 158.997 187.180  0.00  0.00    +0.057 HD
ATOM     33  H   UNL     1     146.300 156.855 187.767  0.00  0.00    +0.031 HD
ATOM     34  H   UNL     1     147.808 156.142 188.244  0.00  0.00    +0.031 HD
ATOM     35  H   UNL     1     146.363 156.768 190.156  0.00  0.00    +0.030 HD
ATOM     36  H   UNL     1     147.013 159.696 189.555  0.00  0.00    +0.030 HD
ATOM     37  H   UNL     1     146.123 159.056 190.931  0.00  0.00    +0.030 HD
ATOM     38  H   UNL     1     145.147 158.816 188.030  0.00  0.00    +0.064 HD
ATOM     39  H   UNL     1     143.748 160.634 190.024  0.00  0.00    +0.059 HD
ATOM     40  H   UNL     1     145.597 161.225 187.648  0.00  0.00    +0.057 HD
ATOM     41  H   UNL     1     143.432 162.904 189.074  0.00  0.00    +0.034 HD
ATOM     42  H   UNL     1     145.114 163.467 188.966  0.00  0.00    +0.034 HD
ATOM     43  H   UNL     1     143.473 162.706 186.493  0.00  0.00    +0.074 HD
ATOM     44  H   UNL     1     147.569 162.403 184.371  0.00  0.00    +0.069 HD
ATOM     45  H   UNL     1     147.475 164.831 186.272  0.00  0.00    +0.062 HD
ATOM     46  H   UNL     1     149.755 163.522 184.604  0.00  0.00    +0.061 HD
ATOM     47  H   UNL     1     149.655 165.973 186.463  0.00  0.00    +0.057 HD
ATOM     48  H   UNL     1     151.866 164.645 184.747  0.00  0.00    +0.034 HD
ATOM     49  H   UNL     1     151.745 166.334 185.160  0.00  0.00    +0.034 HD
ATOM     50  H   UNL     1     153.494 165.165 186.418  0.00  0.00    +0.074 HD
ATOM     51  H   UNL     1     153.004 163.929 188.494  0.00  0.00    +0.036 HD
ATOM     52  H   UNL     1     153.879 162.726 186.678  0.00  0.00    +0.060 HD
ENDROOT
BRANCH   1  53
ATOM     53  C   UNL     1     154.065 160.701 188.053  0.00  0.00    -0.060 C 
ATOM     54  H   UNL     1     154.006 159.908 188.806  0.00  0.00    +0.023 HD
ATOM     55  H   UNL     1     154.590 160.307 187.176  0.00  0.00    +0.023 HD
ATOM     56  H   UNL     1     154.676 161.513 188.462  0.00  0.00    +0.023 HD
ENDBRANCH   1  53
BRANCH   5  57
ATOM     57  C   UNL     1     150.155 156.974 186.994  0.00  0.00    -0.041 C 
ATOM     58  H   UNL     1     150.102 156.563 188.008  0.00  0.00    +0.028 HD
ATOM     59  H   UNL     1     149.931 156.175 186.284  0.00  0.00    +0.028 HD
ATOM     60  H   UNL     1     151.191 157.273 186.836  0.00  0.00    +0.028 HD
ENDBRANCH   5  57
BRANCH  24  61
ATOM     61  C   UNL     1     150.939 163.672 188.298  0.00  0.00    -0.057 C 
ATOM     62  H   UNL     1     151.012 163.784 189.385  0.00  0.00    +0.023 HD
ATOM     63  H   UNL     1     150.488 162.697 188.108  0.00  0.00    +0.023 HD
ATOM     64  H   UNL     1     150.247 164.451 187.965  0.00  0.00    +0.023 HD
ENDBRANCH  24  61
BRANCH   8  65
ATOM     65  C   UNL     1     148.326 157.529 190.493  0.00  0.00    -0.062 C 
ATOM     66  H   UNL     1     149.087 158.132 189.984  0.00  0.00    +0.023 HD
ATOM     67  H   UNL     1     148.189 157.933 191.501  0.00  0.00    +0.023 HD
ATOM     68  H   UNL     1     148.719 156.512 190.588  0.00  0.00    +0.023 HD
ENDBRANCH   8  65
BRANCH  14  69
ATOM     69  C   UNL     1     143.296 164.805 187.132  0.00  0.00    +0.020 C 
ATOM     70  H   UNL     1     142.424 164.727 186.469  0.00  0.00    +0.036 HD
BRANCH  69  71
ATOM     71  C   UNL     1     142.800 165.070 188.558  0.00  0.00    -0.057 C 
ATOM     72  H   UNL     1     142.263 166.016 188.642  0.00  0.00    +0.023 HD
ATOM     73  H   UNL     1     143.626 165.092 189.276  0.00  0.00    +0.023 HD
ATOM     74  H   UNL     1     142.100 164.291 188.882  0.00  0.00    +0.023 HD
ENDBRANCH  69  71
BRANCH  69  75
ATOM     75  C   UNL     1     144.205 165.931 186.560  0.00  0.00    +0.064 C 
ATOM     76  H   UNL     1     144.926 165.484 185.865  0.00  0.00    +0.060 HD
BRANCH  75  77
ATOM     77  C   UNL     1     144.974 166.865 187.536  0.00  0.00    -0.017 C 
ATOM     78  H   UNL     1     144.858 166.428 188.540  0.00  0.00    +0.032 HD
BRANCH  77  79
ATOM     79  C   UNL     1     146.489 166.903 187.300  0.00  0.00    -0.060 C 
ATOM     80  H   UNL     1     146.935 165.924 187.505  0.00  0.00    +0.023 HD
ATOM     81  H   UNL     1     146.723 167.143 186.258  0.00  0.00    +0.023 HD
ATOM     82  H   UNL     1     146.996 167.626 187.940  0.00  0.00    +0.023 HD
ENDBRANCH  77  79
BRANCH  77  83
ATOM     83  C   UNL     1     144.305 168.256 187.623  0.00  0.00    -0.045 C 
ATOM     84  H   UNL     1     143.308 168.118 188.060  0.00  0.00    +0.027 HD
ATOM     85  H   UNL     1     144.151 168.667 186.625  0.00  0.00    +0.027 HD
BRANCH  83  86
ATOM     86  C   UNL     1     145.083 169.274 188.460  0.00  0.00    -0.015 C 
ATOM     87  H   UNL     1     144.716 170.286 188.246  0.00  0.00    +0.030 HD
ATOM     88  H   UNL     1     146.135 169.281 188.150  0.00  0.00    +0.030 HD
BRANCH  86  89
ATOM     89  C   UNL     1     145.062 169.020 189.982  0.00  0.00    +0.109 C 
ATOM     90  H   UNL     1     145.916 168.369 190.205  0.00  0.00    +0.074 HD
BRANCH  89  91
ATOM     91  C   UNL     1     143.792 168.330 190.549  0.00  0.00    +0.031 C 
ATOM     92  H   UNL     1     143.205 167.985 189.688  0.00  0.00    +0.037 HD
BRANCH  91  93
ATOM     93  C   UNL     1     142.926 169.303 191.363  0.00  0.00    -0.056 C 
ATOM     94  H   UNL     1     141.861 169.067 191.262  0.00  0.00    +0.023 HD
ATOM     95  H   UNL     1     143.072 170.337 191.033  0.00  0.00    +0.023 HD
ATOM     96  H   UNL     1     143.172 169.278 192.428  0.00  0.00    +0.023 HD
ENDBRANCH  91  93
BRANCH  91  97
ATOM     97  C   UNL     1     144.161 167.085 191.419  0.00  0.00    +0.115 C 
ATOM     98  H   UNL     1     143.592 166.233 191.029  0.00  0.00    +0.074 HD
BRANCH  97  99
ATOM     99  C   UNL     1     145.673 166.710 191.371  0.00  0.00    +0.013 C 
ATOM    100  H   UNL     1     146.194 167.427 190.727  0.00  0.00    +0.038 HD
BRANCH  99 101
ATOM    101  C   UNL     1     145.881 165.329 190.733  0.00  0.00    -0.056 C 
ATOM    102  H   UNL     1     144.936 164.794 190.586  0.00  0.00    +0.024 HD
ATOM    103  H   UNL     1     146.519 164.701 191.369  0.00  0.00    +0.024 HD
ATOM    104  H   UNL     1     146.375 165.423 189.761  0.00  0.00    +0.024 HD
ENDBRANCH  99 101
BRANCH  99 105
ATOM    105  C   UNL     1     146.311 166.701 192.748  0.00  0.00    -0.064 C 
ATOM    106  C   UNL     1     147.451 166.060 193.038  0.00  0.00    -0.005 C 
ATOM    107  H   UNL     1     145.761 167.250 193.506  0.00  0.00    +0.059 HD
ATOM    108  H   UNL     1     147.966 165.520 192.242  0.00  0.00    +0.078 HD
BRANCH 106 109
ATOM    109  N   UNL     1     148.082 165.993 194.271  0.00  0.00    -0.284 N 
ATOM    110  C   UNL     1     147.446 165.853 195.499  0.00  0.00    +0.206 C 
ATOM    111  O   UNL     1     147.994 165.805 196.595  0.00  0.00    -0.279 OA
ATOM    112  H   UNL     1     146.352 165.774 195.428  0.00  0.00    +0.126 HD
BRANCH 109 113
ATOM    113  C   UNL     1     149.536 166.106 194.278  0.00  0.00    +0.007 C 
ATOM    114  H   UNL     1     149.875 167.083 194.630  0.00  0.00    +0.043 HD
ATOM    115  H   UNL     1     149.955 165.335 194.931  0.00  0.00    +0.043 HD
ATOM    116  H   UNL     1     149.888 165.955 193.254  0.00  0.00    +0.043 HD
ENDBRANCH 109 113
ENDBRANCH 106 109
ENDBRANCH  99 105
ENDBRANCH  97  99
BRANCH  97 117
ATOM    117  O   UNL     1     143.803 167.343 192.798  0.00  0.00    -0.461 OA
BRANCH 117 118
ATOM    118  C   UNL     1     142.794 166.604 193.336  0.00  0.00    +0.304 C 
ATOM    119  O   UNL     1     142.191 166.865 194.367  0.00  0.00    -0.251 OA
BRANCH 118 120
ATOM    120  C   UNL     1     142.507 165.421 192.465  0.00  0.00    +0.033 C 
ATOM    121  H   UNL     1     142.082 164.614 193.066  0.00  0.00    +0.034 HD
ATOM    122  H   UNL     1     141.819 165.707 191.665  0.00  0.00    +0.034 HD
ATOM    123  H   UNL     1     143.439 165.070 192.014  0.00  0.00    +0.034 HD
ENDBRANCH 118 120
ENDBRANCH 117 118
ENDBRANCH  97 117
ENDBRANCH  91  97
ENDBRANCH  89  91
BRANCH  89 124
ATOM    124  O   UNL     1     145.217 170.316 190.607  0.00  0.00    -0.460 OA
BRANCH 124 125
ATOM    125  C   UNL     1     146.169 171.147 190.105  0.00  0.00    +0.324 C 
ATOM    126  O   UNL     1     145.962 171.927 189.177  0.00  0.00    -0.249 OA
BRANCH 125 127
ATOM    127  C   UNL     1     147.505 171.098 190.870  0.00  0.00    +0.105 C 
ATOM    128  H   UNL     1     148.220 171.652 190.246  0.00  0.00    +0.058 HD
BRANCH 127 129
ATOM    129  C   UNL     1     148.010 169.649 190.916  0.00  0.00    -0.039 C 
ATOM    130  H   UNL     1     147.221 168.942 190.636  0.00  0.00    +0.025 HD
ATOM    131  H   UNL     1     148.869 169.495 190.254  0.00  0.00    +0.025 HD
ATOM    132  H   UNL     1     148.335 169.388 191.931  0.00  0.00    +0.025 HD
ENDBRANCH 127 129
BRANCH 127 133
ATOM    133  N   UNL     1     147.551 171.695 192.231  0.00  0.00    -0.296 NA
BRANCH 133 134
ATOM    134  C   UNL     1     146.942 173.013 192.350  0.00  0.00    -0.012 C 
ATOM    135  H   UNL     1     146.193 173.192 191.571  0.00  0.00    +0.039 HD
ATOM    136  H   UNL     1     147.676 173.821 192.315  0.00  0.00    +0.039 HD
ATOM    137  H   UNL     1     146.407 173.096 193.304  0.00  0.00    +0.039 HD
ENDBRANCH 133 134
BRANCH 133 138
ATOM    138  C   UNL     1     148.871 171.652 192.849  0.00  0.00    -0.012 C 
ATOM    139  H   UNL     1     149.448 172.551 192.607  0.00  0.00    +0.039 HD
ATOM    140  H   UNL     1     149.443 170.805 192.454  0.00  0.00    +0.039 HD
ATOM    141  H   UNL     1     148.838 171.548 193.937  0.00  0.00    +0.039 HD
ENDBRANCH 133 138
ENDBRANCH 127 133
ENDBRANCH 125 127
ENDBRANCH 124 125
ENDBRANCH  89 124
ENDBRANCH  86  89
ENDBRANCH  83  86
ENDBRANCH  77  83
ENDBRANCH  75  77
BRANCH  75 142
ATOM    142  O   UNL     1     143.370 166.781 185.753  0.00  0.00    -0.391 OA
ATOM    143  H   UNL     1     143.229 167.618 186.226  0.00  0.00    +0.210 HD
ENDBRANCH  75 142
ENDBRANCH  69  75
ENDBRANCH  14  69
BRANCH  25 144
ATOM    144  O   UNL     1     152.213 162.467 185.594  0.00  0.00    -0.391 OA
ATOM    145  H   UNL     1     152.065 161.525 185.396  0.00  0.00    +0.210 HD
ENDBRANCH  25 144
BRANCH  23 146
ATOM    146  O   UNL     1     152.248 166.286 187.636  0.00  0.00    -0.460 OA
BRANCH 146 147
ATOM    147  C   UNL     1     153.335 166.831 188.246  0.00  0.00    +0.327 C 
ATOM    148  O   UNL     1     154.268 167.353 187.639  0.00  0.00    -0.249 OA
BRANCH 147 149
ATOM    149  C   UNL     1     153.281 166.752 189.783  0.00  0.00    +0.131 C 
ATOM    150  H   UNL     1     153.714 167.709 190.108  0.00  0.00    +0.060 HD
BRANCH 149 151
ATOM    151  C   UNL     1     154.234 165.617 190.224  0.00  0.00    +0.073 C 
ATOM    152  H   UNL     1     153.699 164.859 190.809  0.00  0.00    +0.058 HD
ATOM    153  H   UNL     1     154.643 165.112 189.340  0.00  0.00    +0.058 HD
BRANCH 151 154
ATOM    154  O   UNL     1     155.332 166.138 190.982  0.00  0.00    -0.381 OA
BRANCH 154 155
ATOM    155  C   UNL     1     156.535 166.147 190.227  0.00  0.00    +0.037 C 
ATOM    156  H   UNL     1     156.834 165.129 189.962  0.00  0.00    +0.052 HD
ATOM    157  H   UNL     1     157.333 166.640 190.791  0.00  0.00    +0.052 HD
ATOM    158  H   UNL     1     156.360 166.711 189.306  0.00  0.00    +0.052 HD
ENDBRANCH 154 155
ENDBRANCH 151 154
ENDBRANCH 149 151
BRANCH 149 159
ATOM    159  N   UNL     1     151.874 166.713 190.298  0.00  0.00    -0.294 NA
BRANCH 159 160
ATOM    160  C   UNL     1     151.492 167.987 190.907  0.00  0.00    -0.012 C 
ATOM    161  H   UNL     1     152.277 168.746 190.846  0.00  0.00    +0.039 HD
ATOM    162  H   UNL     1     151.239 167.845 191.964  0.00  0.00    +0.039 HD
ATOM    163  H   UNL     1     150.590 168.384 190.431  0.00  0.00    +0.039 HD
ENDBRANCH 159 160
BRANCH 159 164
ATOM    164  C   UNL     1     151.614 165.610 191.220  0.00  0.00    -0.012 C 
ATOM    165  H   UNL     1     151.834 165.919 192.249  0.00  0.00    +0.039 HD
ATOM    166  H   UNL     1     152.223 164.727 191.002  0.00  0.00    +0.039 HD
ATOM    167  H   UNL     1     150.560 165.317 191.203  0.00  0.00    +0.039 HD
ENDBRANCH 159 164
ENDBRANCH 149 159
ENDBRANCH 147 149
ENDBRANCH 146 147
ENDBRANCH  23 146
BRANCH   4 168
ATOM    168  O   UNL     1     148.542 159.929 185.331  0.00  0.00    -0.376 OA
BRANCH 168 169
ATOM    169  C   UNL     1     148.462 159.692 183.930  0.00  0.00    +0.037 C 
ATOM    170  H   UNL     1     148.090 158.681 183.737  0.00  0.00    +0.052 HD
ATOM    171  H   UNL     1     147.822 160.429 183.437  0.00  0.00    +0.052 HD
ATOM    172  H   UNL     1     149.469 159.774 183.512  0.00  0.00    +0.052 HD
ENDBRANCH 168 169
ENDBRANCH   4 168
BRANCH  10 173
ATOM    173  O   UNL     1     144.045 158.126 189.643  0.00  0.00    -0.376 OA
BRANCH 173 174
ATOM    174  C   UNL     1     143.385 157.353 188.648  0.00  0.00    +0.037 C 
ATOM    175  H   UNL     1     142.621 156.746 189.141  0.00  0.00    +0.052 HD
ATOM    176  H   UNL     1     142.894 157.998 187.914  0.00  0.00    +0.052 HD
ATOM    177  H   UNL     1     144.090 156.682 188.150  0.00  0.00    +0.052 HD
ENDBRANCH 173 174
ENDBRANCH  10 173
TORSDOF 45
ENDMDL
MODEL 9
REMARK VINA RESULT:      -5.0      3.120      8.720
REMARK  Name = Aplyronine A_conf2
REMARK  45 active torsions:
REMARK  status: ('A' for Active; 'I' for Inactive)
REMARK    1  A    between atoms: C_1  and  C_2
REMARK    2  A    between atoms: C_5  and  O_75
REMARK    3  A    between atoms: C_6  and  C_74
REMARK    4  A    between atoms: C_9  and  C_73
REMARK    5  A    between atoms: C_11  and  O_71
REMARK    6  A    between atoms: C_15  and  C_39
REMARK    7  A    between atoms: C_24  and  O_29
REMARK    8  A    between atoms: C_25  and  C_28
REMARK    9  A    between atoms: C_26  and  O_27
REMARK   10  A    between atoms: O_29  and  C_30
REMARK   11  A    between atoms: C_30  and  C_32
REMARK   12  A    between atoms: C_32  and  C_33
REMARK   13  A    between atoms: C_32  and  N_36
REMARK   14  A    between atoms: C_33  and  O_34
REMARK   15  A    between atoms: O_34  and  C_35
REMARK   16  A    between atoms: N_36  and  C_37
REMARK   17  A    between atoms: N_36  and  C_38
REMARK   18  A    between atoms: C_39  and  C_40
REMARK   19  A    between atoms: C_39  and  C_41
REMARK   20  A    between atoms: C_41  and  C_42
REMARK   21  A    between atoms: C_41  and  O_70
REMARK   22  A    between atoms: C_42  and  C_43
REMARK   23  A    between atoms: C_42  and  C_44
REMARK   24  A    between atoms: C_44  and  C_45
REMARK   25  A    between atoms: C_45  and  C_46
REMARK   26  A    between atoms: C_46  and  C_47
REMARK   27  A    between atoms: C_46  and  O_62
REMARK   28  A    between atoms: C_47  and  C_48
REMARK   29  A    between atoms: C_47  and  C_49
REMARK   30  A    between atoms: C_49  and  C_50
REMARK   31  A    between atoms: C_49  and  O_58
REMARK   32  A    between atoms: C_50  and  C_51
REMARK   33  A    between atoms: C_50  and  C_52
REMARK   34  A    between atoms: C_53  and  N_54
REMARK   35  A    between atoms: N_54  and  C_55
REMARK   36  A    between atoms: O_58  and  C_59
REMARK   37  A    between atoms: C_59  and  C_61
REMARK   38  A    between atoms: O_62  and  C_63
REMARK   39  A    between atoms: C_63  and  C_65
REMARK   40  A    between atoms: C_65  and  C_66
REMARK   41  A    between atoms: C_65  and  N_67
REMARK   42  A    between atoms: N_67  and  C_68
REMARK   43  A    between atoms: N_67  and  C_69
REMARK   44  A    between atoms: O_71  and  C_72
REMARK   45  A    between atoms: O_75  and  C_76
REMARK                            x       y       z     vdW  Elec       q    Type
REMARK                         _______ _______ _______ _____ _____    ______ ____
ROOT
ATOM      1  C   UNL     1     155.377 165.418 189.974  0.00  0.00    -0.017 C 
ATOM      2  C   UNL     1     155.766 164.681 188.669  0.00  0.00    -0.045 C 
ATOM      3  C   UNL     1     154.629 163.851 188.057  0.00  0.00    -0.022 C 
ATOM      4  C   UNL     1     154.991 163.214 186.699  0.00  0.00    +0.079 C 
ATOM      5  C   UNL     1     155.696 161.862 186.856  0.00  0.00    -0.048 C 
ATOM      6  C   UNL     1     154.991 160.710 186.879  0.00  0.00    -0.082 C 
ATOM      7  C   UNL     1     155.472 159.288 186.988  0.00  0.00    -0.032 C 
ATOM      8  C   UNL     1     155.090 158.578 188.306  0.00  0.00    -0.038 C 
ATOM      9  C   UNL     1     153.592 158.667 188.685  0.00  0.00    -0.020 C 
ATOM     10  C   UNL     1     152.626 158.185 187.590  0.00  0.00    +0.077 C 
ATOM     11  C   UNL     1     151.199 158.420 188.022  0.00  0.00    -0.059 C 
ATOM     12  C   UNL     1     150.571 159.593 187.823  0.00  0.00    -0.082 C 
ATOM     13  C   UNL     1     149.141 159.890 188.198  0.00  0.00    +0.003 C 
ATOM     14  C   UNL     1     148.400 160.685 187.094  0.00  0.00    +0.112 C 
ATOM     15  O   UNL     1     148.922 162.039 187.109  0.00  0.00    -0.458 OA
ATOM     16  C   UNL     1     149.741 162.432 186.110  0.00  0.00    +0.332 C 
ATOM     17  O   UNL     1     150.021 161.797 185.106  0.00  0.00    -0.246 OA
ATOM     18  C   UNL     1     150.345 163.749 186.409  0.00  0.00    +0.022 C 
ATOM     19  C   UNL     1     150.038 164.505 187.474  0.00  0.00    -0.055 C 
ATOM     20  C   UNL     1     150.733 165.736 187.776  0.00  0.00    -0.065 C 
ATOM     21  C   UNL     1     150.474 166.477 188.865  0.00  0.00    -0.081 C 
ATOM     22  C   UNL     1     151.271 167.700 189.239  0.00  0.00    +0.003 C 
ATOM     23  C   UNL     1     152.071 167.611 190.563  0.00  0.00    +0.111 C 
ATOM     24  C   UNL     1     153.093 166.446 190.765  0.00  0.00    +0.020 C 
ATOM     25  C   UNL     1     154.336 166.575 189.835  0.00  0.00    +0.064 C 
ATOM     26  H   UNL     1     155.008 164.664 190.676  0.00  0.00    +0.032 HD
ATOM     27  H   UNL     1     156.140 165.403 187.933  0.00  0.00    +0.027 HD
ATOM     28  H   UNL     1     156.602 164.011 188.893  0.00  0.00    +0.027 HD
ATOM     29  H   UNL     1     154.314 163.075 188.768  0.00  0.00    +0.029 HD
ATOM     30  H   UNL     1     153.746 164.478 187.908  0.00  0.00    +0.029 HD
ATOM     31  H   UNL     1     155.615 163.910 186.122  0.00  0.00    +0.064 HD
ATOM     32  H   UNL     1     153.907 160.797 186.793  0.00  0.00    +0.057 HD
ATOM     33  H   UNL     1     155.046 158.731 186.143  0.00  0.00    +0.031 HD
ATOM     34  H   UNL     1     156.556 159.217 186.849  0.00  0.00    +0.031 HD
ATOM     35  H   UNL     1     155.344 157.516 188.183  0.00  0.00    +0.030 HD
ATOM     36  H   UNL     1     153.352 159.701 188.965  0.00  0.00    +0.030 HD
ATOM     37  H   UNL     1     153.440 158.058 189.586  0.00  0.00    +0.030 HD
ATOM     38  H   UNL     1     152.814 158.725 186.655  0.00  0.00    +0.064 HD
ATOM     39  H   UNL     1     150.687 157.593 188.507  0.00  0.00    +0.059 HD
ATOM     40  H   UNL     1     151.134 160.405 187.364  0.00  0.00    +0.057 HD
ATOM     41  H   UNL     1     148.613 158.950 188.398  0.00  0.00    +0.034 HD
ATOM     42  H   UNL     1     149.163 160.474 189.127  0.00  0.00    +0.034 HD
ATOM     43  H   UNL     1     148.590 160.198 186.130  0.00  0.00    +0.074 HD
ATOM     44  H   UNL     1     151.114 164.047 185.706  0.00  0.00    +0.069 HD
ATOM     45  H   UNL     1     149.274 164.186 188.179  0.00  0.00    +0.062 HD
ATOM     46  H   UNL     1     151.549 166.026 187.114  0.00  0.00    +0.061 HD
ATOM     47  H   UNL     1     149.684 166.194 189.557  0.00  0.00    +0.057 HD
ATOM     48  H   UNL     1     151.930 167.999 188.418  0.00  0.00    +0.034 HD
ATOM     49  H   UNL     1     150.544 168.519 189.338  0.00  0.00    +0.034 HD
ATOM     50  H   UNL     1     152.623 168.559 190.636  0.00  0.00    +0.074 HD
ATOM     51  H   UNL     1     153.480 166.555 191.787  0.00  0.00    +0.036 HD
ATOM     52  H   UNL     1     154.819 167.520 190.117  0.00  0.00    +0.060 HD
ENDROOT
BRANCH   1  53
ATOM     53  C   UNL     1     156.653 165.973 190.632  0.00  0.00    -0.060 C 
ATOM     54  H   UNL     1     157.218 165.179 191.132  0.00  0.00    +0.023 HD
ATOM     55  H   UNL     1     157.304 166.442 189.887  0.00  0.00    +0.023 HD
ATOM     56  H   UNL     1     156.405 166.736 191.378  0.00  0.00    +0.023 HD
ENDBRANCH   1  53
BRANCH   5  57
ATOM     57  C   UNL     1     157.198 161.926 186.940  0.00  0.00    -0.041 C 
ATOM     58  H   UNL     1     157.588 162.683 186.251  0.00  0.00    +0.028 HD
ATOM     59  H   UNL     1     157.513 162.185 187.954  0.00  0.00    +0.028 HD
ATOM     60  H   UNL     1     157.683 160.987 186.675  0.00  0.00    +0.028 HD
ENDBRANCH   5  57
BRANCH  24  61
ATOM     61  C   UNL     1     152.433 165.060 190.768  0.00  0.00    -0.057 C 
ATOM     62  H   UNL     1     151.752 164.950 189.918  0.00  0.00    +0.023 HD
ATOM     63  H   UNL     1     151.847 164.881 191.671  0.00  0.00    +0.023 HD
ATOM     64  H   UNL     1     153.170 164.258 190.664  0.00  0.00    +0.023 HD
ENDBRANCH  24  61
BRANCH   8  65
ATOM     65  C   UNL     1     155.940 159.111 189.467  0.00  0.00    -0.062 C 
ATOM     66  H   UNL     1     156.564 158.315 189.891  0.00  0.00    +0.023 HD
ATOM     67  H   UNL     1     156.597 159.924 189.145  0.00  0.00    +0.023 HD
ATOM     68  H   UNL     1     155.300 159.492 190.270  0.00  0.00    +0.023 HD
ENDBRANCH   8  65
BRANCH  14  69
ATOM     69  C   UNL     1     146.861 160.761 187.372  0.00  0.00    +0.020 C 
ATOM     70  H   UNL     1     146.467 159.739 187.304  0.00  0.00    +0.036 HD
BRANCH  69  71
ATOM     71  C   UNL     1     146.591 161.294 188.784  0.00  0.00    -0.057 C 
ATOM     72  H   UNL     1     146.541 162.383 188.814  0.00  0.00    +0.023 HD
ATOM     73  H   UNL     1     147.363 160.977 189.491  0.00  0.00    +0.023 HD
ATOM     74  H   UNL     1     145.627 160.933 189.161  0.00  0.00    +0.023 HD
ENDBRANCH  69  71
BRANCH  69  75
ATOM     75  C   UNL     1     146.182 161.589 186.244  0.00  0.00    +0.064 C 
ATOM     76  H   UNL     1     146.401 162.652 186.402  0.00  0.00    +0.060 HD
BRANCH  75  77
ATOM     77  C   UNL     1     144.655 161.433 185.991  0.00  0.00    -0.017 C 
ATOM     78  H   UNL     1     144.543 161.174 184.926  0.00  0.00    +0.032 HD
BRANCH  77  79
ATOM     79  C   UNL     1     144.014 160.262 186.747  0.00  0.00    -0.060 C 
ATOM     80  H   UNL     1     144.747 159.466 186.916  0.00  0.00    +0.023 HD
ATOM     81  H   UNL     1     143.655 160.574 187.732  0.00  0.00    +0.023 HD
ATOM     82  H   UNL     1     143.180 159.817 186.203  0.00  0.00    +0.023 HD
ENDBRANCH  77  79
BRANCH  77  83
ATOM     83  C   UNL     1     143.920 162.781 186.158  0.00  0.00    -0.045 C 
ATOM     84  H   UNL     1     142.909 162.663 185.744  0.00  0.00    +0.027 HD
ATOM     85  H   UNL     1     144.407 163.557 185.567  0.00  0.00    +0.027 HD
BRANCH  83  86
ATOM     86  C   UNL     1     143.813 163.261 187.608  0.00  0.00    -0.015 C 
ATOM     87  H   UNL     1     144.293 162.533 188.275  0.00  0.00    +0.030 HD
ATOM     88  H   UNL     1     142.759 163.276 187.915  0.00  0.00    +0.030 HD
BRANCH  86  89
ATOM     89  C   UNL     1     144.382 164.670 187.873  0.00  0.00    +0.109 C 
ATOM     90  H   UNL     1     143.763 165.373 187.302  0.00  0.00    +0.074 HD
BRANCH  89  91
ATOM     91  C   UNL     1     145.859 164.907 187.457  0.00  0.00    +0.031 C 
ATOM     92  H   UNL     1     146.175 164.024 186.886  0.00  0.00    +0.037 HD
BRANCH  91  93
ATOM     93  C   UNL     1     146.782 165.048 188.677  0.00  0.00    -0.056 C 
ATOM     94  H   UNL     1     146.322 164.622 189.574  0.00  0.00    +0.023 HD
ATOM     95  H   UNL     1     147.011 166.098 188.884  0.00  0.00    +0.023 HD
ATOM     96  H   UNL     1     147.741 164.544 188.525  0.00  0.00    +0.023 HD
ENDBRANCH  91  93
BRANCH  91  97
ATOM     97  C   UNL     1     145.996 166.160 186.534  0.00  0.00    +0.115 C 
ATOM     98  H   UNL     1     145.980 165.806 185.496  0.00  0.00    +0.074 HD
BRANCH  97  99
ATOM     99  C   UNL     1     144.841 167.193 186.701  0.00  0.00    +0.013 C 
ATOM    100  H   UNL     1     143.960 166.678 187.097  0.00  0.00    +0.038 HD
BRANCH  99 101
ATOM    101  C   UNL     1     144.422 167.781 185.346  0.00  0.00    -0.056 C 
ATOM    102  H   UNL     1     143.658 167.172 184.849  0.00  0.00    +0.024 HD
ATOM    103  H   UNL     1     145.284 167.845 184.669  0.00  0.00    +0.024 HD
ATOM    104  H   UNL     1     144.025 168.794 185.469  0.00  0.00    +0.024 HD
ENDBRANCH  99 101
BRANCH  99 105
ATOM    105  C   UNL     1     145.219 168.341 187.621  0.00  0.00    -0.064 C 
ATOM    106  C   UNL     1     144.329 169.145 188.216  0.00  0.00    -0.005 C 
ATOM    107  H   UNL     1     146.287 168.479 187.757  0.00  0.00    +0.059 HD
ATOM    108  H   UNL     1     143.266 168.966 188.047  0.00  0.00    +0.078 HD
BRANCH 106 109
ATOM    109  N   UNL     1     144.599 170.218 189.052  0.00  0.00    -0.284 N 
ATOM    110  C   UNL     1     144.139 170.362 190.356  0.00  0.00    +0.206 C 
ATOM    111  O   UNL     1     144.362 171.312 191.099  0.00  0.00    -0.279 OA
ATOM    112  H   UNL     1     143.532 169.518 190.711  0.00  0.00    +0.126 HD
BRANCH 109 113
ATOM    113  C   UNL     1     145.411 171.298 188.504  0.00  0.00    +0.007 C 
ATOM    114  H   UNL     1     145.935 171.858 189.280  0.00  0.00    +0.043 HD
ATOM    115  H   UNL     1     146.149 170.880 187.813  0.00  0.00    +0.043 HD
ATOM    116  H   UNL     1     144.743 171.976 187.965  0.00  0.00    +0.043 HD
ENDBRANCH 109 113
ENDBRANCH 106 109
ENDBRANCH  99 105
ENDBRANCH  97  99
BRANCH  97 117
ATOM    117  O   UNL     1     147.247 166.831 186.820  0.00  0.00    -0.461 OA
BRANCH 117 118
ATOM    118  C   UNL     1     148.063 167.118 185.769  0.00  0.00    +0.304 C 
ATOM    119  O   UNL     1     148.234 166.411 184.786  0.00  0.00    -0.251 OA
BRANCH 118 120
ATOM    120  C   UNL     1     148.713 168.450 185.975  0.00  0.00    +0.033 C 
ATOM    121  H   UNL     1     148.009 169.248 185.728  0.00  0.00    +0.034 HD
ATOM    122  H   UNL     1     149.049 168.543 187.012  0.00  0.00    +0.034 HD
ATOM    123  H   UNL     1     149.584 168.533 185.319  0.00  0.00    +0.034 HD
ENDBRANCH 118 120
ENDBRANCH 117 118
ENDBRANCH  97 117
ENDBRANCH  91  97
ENDBRANCH  89  91
BRANCH  89 124
ATOM    124  O   UNL     1     144.248 164.895 189.297  0.00  0.00    -0.460 OA
BRANCH 124 125
ATOM    125  C   UNL     1     143.243 165.711 189.713  0.00  0.00    +0.324 C 
ATOM    126  O   UNL     1     142.155 165.785 189.145  0.00  0.00    -0.249 OA
BRANCH 125 127
ATOM    127  C   UNL     1     143.552 166.461 191.023  0.00  0.00    +0.105 C 
ATOM    128  H   UNL     1     143.031 167.425 190.937  0.00  0.00    +0.058 HD
BRANCH 127 129
ATOM    129  C   UNL     1     145.050 166.788 191.079  0.00  0.00    -0.039 C 
ATOM    130  H   UNL     1     145.390 166.929 192.113  0.00  0.00    +0.025 HD
ATOM    131  H   UNL     1     145.658 166.004 190.616  0.00  0.00    +0.025 HD
ATOM    132  H   UNL     1     145.260 167.720 190.539  0.00  0.00    +0.025 HD
ENDBRANCH 127 129
BRANCH 127 133
ATOM    133  N   UNL     1     143.120 165.838 192.301  0.00  0.00    -0.296 NA
BRANCH 133 134
ATOM    134  C   UNL     1     141.827 166.284 192.802  0.00  0.00    -0.012 C 
ATOM    135  H   UNL     1     141.261 166.837 192.045  0.00  0.00    +0.039 HD
ATOM    136  H   UNL     1     141.913 166.909 193.693  0.00  0.00    +0.039 HD
ATOM    137  H   UNL     1     141.206 165.419 193.066  0.00  0.00    +0.039 HD
ENDBRANCH 133 134
BRANCH 133 138
ATOM    138  C   UNL     1     144.140 165.862 193.343  0.00  0.00    -0.012 C 
ATOM    139  H   UNL     1     143.807 166.448 194.206  0.00  0.00    +0.039 HD
ATOM    140  H   UNL     1     145.046 166.354 192.970  0.00  0.00    +0.039 HD
ATOM    141  H   UNL     1     144.427 164.868 193.693  0.00  0.00    +0.039 HD
ENDBRANCH 133 138
ENDBRANCH 127 133
ENDBRANCH 125 127
ENDBRANCH 124 125
ENDBRANCH  89 124
ENDBRANCH  86  89
ENDBRANCH  83  86
ENDBRANCH  77  83
ENDBRANCH  75  77
BRANCH  75 142
ATOM    142  O   UNL     1     146.837 161.242 185.010  0.00  0.00    -0.391 OA
ATOM    143  H   UNL     1     147.792 161.166 185.176  0.00  0.00    +0.210 HD
ENDBRANCH  75 142
ENDBRANCH  69  75
ENDBRANCH  14  69
BRANCH  25 144
ATOM    144  O   UNL     1     153.941 166.761 188.483  0.00  0.00    -0.391 OA
ATOM    145  H   UNL     1     154.073 167.699 188.261  0.00  0.00    +0.210 HD
ENDBRANCH  25 144
BRANCH  23 146
ATOM    146  O   UNL     1     151.081 167.593 191.628  0.00  0.00    -0.460 OA
BRANCH 146 147
ATOM    147  C   UNL     1     150.701 168.788 192.154  0.00  0.00    +0.327 C 
ATOM    148  O   UNL     1     151.493 169.643 192.546  0.00  0.00    -0.249 OA
BRANCH 147 149
ATOM    149  C   UNL     1     149.174 168.985 192.195  0.00  0.00    +0.131 C 
ATOM    150  H   UNL     1     149.020 169.640 193.065  0.00  0.00    +0.060 HD
BRANCH 149 151
ATOM    151  C   UNL     1     148.537 167.612 192.506  0.00  0.00    +0.073 C 
ATOM    152  H   UNL     1     148.112 167.161 191.600  0.00  0.00    +0.058 HD
ATOM    153  H   UNL     1     149.304 166.922 192.879  0.00  0.00    +0.058 HD
BRANCH 151 154
ATOM    154  O   UNL     1     147.527 167.734 193.514  0.00  0.00    -0.381 OA
BRANCH 154 155
ATOM    155  C   UNL     1     147.612 166.690 194.474  0.00  0.00    +0.037 C 
ATOM    156  H   UNL     1     147.590 167.095 195.489  0.00  0.00    +0.052 HD
ATOM    157  H   UNL     1     148.525 166.107 194.319  0.00  0.00    +0.052 HD
ATOM    158  H   UNL     1     146.750 166.030 194.342  0.00  0.00    +0.052 HD
ENDBRANCH 154 155
ENDBRANCH 151 154
ENDBRANCH 149 151
BRANCH 149 159
ATOM    159  N   UNL     1     148.668 169.728 190.996  0.00  0.00    -0.294 NA
BRANCH 159 160
ATOM    160  C   UNL     1     147.934 170.933 191.383  0.00  0.00    -0.012 C 
ATOM    161  H   UNL     1     147.367 170.811 192.310  0.00  0.00    +0.039 HD
ATOM    162  H   UNL     1     147.233 171.223 190.592  0.00  0.00    +0.039 HD
ATOM    163  H   UNL     1     148.619 171.777 191.504  0.00  0.00    +0.039 HD
ENDBRANCH 159 160
BRANCH 159 164
ATOM    164  C   UNL     1     147.864 168.910 190.092  0.00  0.00    -0.012 C 
ATOM    165  H   UNL     1     148.082 169.173 189.050  0.00  0.00    +0.039 HD
ATOM    166  H   UNL     1     146.789 169.043 190.248  0.00  0.00    +0.039 HD
ATOM    167  H   UNL     1     148.100 167.847 190.199  0.00  0.00    +0.039 HD
ENDBRANCH 159 164
ENDBRANCH 149 159
ENDBRANCH 147 149
ENDBRANCH 146 147
ENDBRANCH  23 146
BRANCH   4 168
ATOM    168  O   UNL     1     153.745 163.054 185.991  0.00  0.00    -0.376 OA
BRANCH 168 169
ATOM    169  C   UNL     1     153.725 163.721 184.734  0.00  0.00    +0.037 C 
ATOM    170  H   UNL     1     153.868 164.797 184.874  0.00  0.00    +0.052 HD
ATOM    171  H   UNL     1     154.490 163.325 184.061  0.00  0.00    +0.052 HD
ATOM    172  H   UNL     1     152.745 163.559 184.278  0.00  0.00    +0.052 HD
ENDBRANCH 168 169
ENDBRANCH   4 168
BRANCH  10 173
ATOM    173  O   UNL     1     152.833 156.786 187.383  0.00  0.00    -0.376 OA
BRANCH 173 174
ATOM    174  C   UNL     1     152.944 156.444 186.006  0.00  0.00    +0.037 C 
ATOM    175  H   UNL     1     154.005 156.438 185.742  0.00  0.00    +0.052 HD
ATOM    176  H   UNL     1     152.535 155.448 185.817  0.00  0.00    +0.052 HD
ATOM    177  H   UNL     1     152.437 157.186 185.383  0.00  0.00    +0.052 HD
ENDBRANCH 173 174
ENDBRANCH  10 173
TORSDOF 45
ENDMDL
MODEL 10
REMARK VINA RESULT:      -5.0      4.055     12.442
REMARK  Name = Aplyronine A_conf2
REMARK  45 active torsions:
REMARK  status: ('A' for Active; 'I' for Inactive)
REMARK    1  A    between atoms: C_1  and  C_2
REMARK    2  A    between atoms: C_5  and  O_75
REMARK    3  A    between atoms: C_6  and  C_74
REMARK    4  A    between atoms: C_9  and  C_73
REMARK    5  A    between atoms: C_11  and  O_71
REMARK    6  A    between atoms: C_15  and  C_39
REMARK    7  A    between atoms: C_24  and  O_29
REMARK    8  A    between atoms: C_25  and  C_28
REMARK    9  A    between atoms: C_26  and  O_27
REMARK   10  A    between atoms: O_29  and  C_30
REMARK   11  A    between atoms: C_30  and  C_32
REMARK   12  A    between atoms: C_32  and  C_33
REMARK   13  A    between atoms: C_32  and  N_36
REMARK   14  A    between atoms: C_33  and  O_34
REMARK   15  A    between atoms: O_34  and  C_35
REMARK   16  A    between atoms: N_36  and  C_37
REMARK   17  A    between atoms: N_36  and  C_38
REMARK   18  A    between atoms: C_39  and  C_40
REMARK   19  A    between atoms: C_39  and  C_41
REMARK   20  A    between atoms: C_41  and  C_42
REMARK   21  A    between atoms: C_41  and  O_70
REMARK   22  A    between atoms: C_42  and  C_43
REMARK   23  A    between atoms: C_42  and  C_44
REMARK   24  A    between atoms: C_44  and  C_45
REMARK   25  A    between atoms: C_45  and  C_46
REMARK   26  A    between atoms: C_46  and  C_47
REMARK   27  A    between atoms: C_46  and  O_62
REMARK   28  A    between atoms: C_47  and  C_48
REMARK   29  A    between atoms: C_47  and  C_49
REMARK   30  A    between atoms: C_49  and  C_50
REMARK   31  A    between atoms: C_49  and  O_58
REMARK   32  A    between atoms: C_50  and  C_51
REMARK   33  A    between atoms: C_50  and  C_52
REMARK   34  A    between atoms: C_53  and  N_54
REMARK   35  A    between atoms: N_54  and  C_55
REMARK   36  A    between atoms: O_58  and  C_59
REMARK   37  A    between atoms: C_59  and  C_61
REMARK   38  A    between atoms: O_62  and  C_63
REMARK   39  A    between atoms: C_63  and  C_65
REMARK   40  A    between atoms: C_65  and  C_66
REMARK   41  A    between atoms: C_65  and  N_67
REMARK   42  A    between atoms: N_67  and  C_68
REMARK   43  A    between atoms: N_67  and  C_69
REMARK   44  A    between atoms: O_71  and  C_72
REMARK   45  A    between atoms: O_75  and  C_76
REMARK                            x       y       z     vdW  Elec       q    Type
REMARK                         _______ _______ _______ _____ _____    ______ ____
ROOT
ATOM      1  C   UNL     1     141.175 165.491 187.361  0.00  0.00    -0.017 C 
ATOM      2  C   UNL     1     140.652 166.829 186.783  0.00  0.00    -0.045 C 
ATOM      3  C   UNL     1     141.527 168.042 187.124  0.00  0.00    -0.022 C 
ATOM      4  C   UNL     1     141.062 169.350 186.449  0.00  0.00    +0.079 C 
ATOM      5  C   UNL     1     139.989 170.079 187.265  0.00  0.00    -0.048 C 
ATOM      6  C   UNL     1     140.328 171.014 188.180  0.00  0.00    -0.082 C 
ATOM      7  C   UNL     1     139.451 171.868 189.056  0.00  0.00    -0.032 C 
ATOM      8  C   UNL     1     139.548 171.552 190.565  0.00  0.00    -0.038 C 
ATOM      9  C   UNL     1     140.987 171.505 191.132  0.00  0.00    -0.020 C 
ATOM     10  C   UNL     1     141.824 172.766 190.857  0.00  0.00    +0.077 C 
ATOM     11  C   UNL     1     143.236 172.566 191.353  0.00  0.00    -0.059 C 
ATOM     12  C   UNL     1     144.185 171.978 190.603  0.00  0.00    -0.082 C 
ATOM     13  C   UNL     1     145.620 171.773 191.017  0.00  0.00    +0.003 C 
ATOM     14  C   UNL     1     146.611 172.088 189.870  0.00  0.00    +0.112 C 
ATOM     15  O   UNL     1     146.504 171.016 188.897  0.00  0.00    -0.458 OA
ATOM     16  C   UNL     1     145.882 171.263 187.724  0.00  0.00    +0.332 C 
ATOM     17  O   UNL     1     145.479 172.344 187.326  0.00  0.00    -0.246 OA
ATOM     18  C   UNL     1     145.672 170.011 186.964  0.00  0.00    +0.022 C 
ATOM     19  C   UNL     1     146.133 168.807 187.335  0.00  0.00    -0.055 C 
ATOM     20  C   UNL     1     145.811 167.597 186.612  0.00  0.00    -0.065 C 
ATOM     21  C   UNL     1     146.221 166.379 186.999  0.00  0.00    -0.081 C 
ATOM     22  C   UNL     1     145.796 165.108 186.310  0.00  0.00    +0.003 C 
ATOM     23  C   UNL     1     144.941 164.130 187.156  0.00  0.00    +0.111 C 
ATOM     24  C   UNL     1     143.618 164.639 187.812  0.00  0.00    +0.020 C 
ATOM     25  C   UNL     1     142.511 164.950 186.761  0.00  0.00    +0.064 C 
ATOM     26  H   UNL     1     141.275 165.621 188.444  0.00  0.00    +0.032 HD
ATOM     27  H   UNL     1     140.539 166.743 185.696  0.00  0.00    +0.027 HD
ATOM     28  H   UNL     1     139.648 167.003 187.183  0.00  0.00    +0.027 HD
ATOM     29  H   UNL     1     141.570 168.172 188.214  0.00  0.00    +0.029 HD
ATOM     30  H   UNL     1     142.561 167.856 186.818  0.00  0.00    +0.029 HD
ATOM     31  H   UNL     1     140.695 169.129 185.439  0.00  0.00    +0.064 HD
ATOM     32  H   UNL     1     141.394 171.208 188.310  0.00  0.00    +0.057 HD
ATOM     33  H   UNL     1     139.737 172.914 188.889  0.00  0.00    +0.031 HD
ATOM     34  H   UNL     1     138.401 171.815 188.750  0.00  0.00    +0.031 HD
ATOM     35  H   UNL     1     139.003 172.347 191.094  0.00  0.00    +0.030 HD
ATOM     36  H   UNL     1     141.503 170.621 190.733  0.00  0.00    +0.030 HD
ATOM     37  H   UNL     1     140.914 171.358 192.218  0.00  0.00    +0.030 HD
ATOM     38  H   UNL     1     141.845 172.979 189.782  0.00  0.00    +0.064 HD
ATOM     39  H   UNL     1     143.462 172.921 192.355  0.00  0.00    +0.059 HD
ATOM     40  H   UNL     1     143.904 171.607 189.618  0.00  0.00    +0.057 HD
ATOM     41  H   UNL     1     145.843 172.405 191.886  0.00  0.00    +0.034 HD
ATOM     42  H   UNL     1     145.724 170.724 191.323  0.00  0.00    +0.034 HD
ATOM     43  H   UNL     1     146.335 173.053 189.428  0.00  0.00    +0.074 HD
ATOM     44  H   UNL     1     145.057 170.133 186.081  0.00  0.00    +0.069 HD
ATOM     45  H   UNL     1     146.738 168.696 188.232  0.00  0.00    +0.062 HD
ATOM     46  H   UNL     1     145.146 167.690 185.752  0.00  0.00    +0.061 HD
ATOM     47  H   UNL     1     146.861 166.257 187.870  0.00  0.00    +0.057 HD
ATOM     48  H   UNL     1     145.292 165.330 185.365  0.00  0.00    +0.034 HD
ATOM     49  H   UNL     1     146.723 164.589 186.028  0.00  0.00    +0.034 HD
ATOM     50  H   UNL     1     144.685 163.304 186.478  0.00  0.00    +0.074 HD
ATOM     51  H   UNL     1     143.230 163.799 188.405  0.00  0.00    +0.036 HD
ATOM     52  H   UNL     1     142.310 163.996 186.254  0.00  0.00    +0.060 HD
ENDROOT
BRANCH   1  53
ATOM     53  C   UNL     1     140.083 164.417 187.198  0.00  0.00    -0.060 C 
ATOM     54  H   UNL     1     139.753 164.343 186.157  0.00  0.00    +0.023 HD
ATOM     55  H   UNL     1     140.453 163.435 187.513  0.00  0.00    +0.023 HD
ATOM     56  H   UNL     1     139.210 164.653 187.817  0.00  0.00    +0.023 HD
ENDBRANCH   1  53
BRANCH   5  57
ATOM     57  C   UNL     1     138.568 169.703 186.941  0.00  0.00    -0.041 C 
ATOM     58  H   UNL     1     137.884 170.100 187.699  0.00  0.00    +0.028 HD
ATOM     59  H   UNL     1     138.278 170.106 185.967  0.00  0.00    +0.028 HD
ATOM     60  H   UNL     1     138.405 168.626 186.912  0.00  0.00    +0.028 HD
ENDBRANCH   5  57
BRANCH  24  61
ATOM     61  C   UNL     1     143.847 165.746 188.851  0.00  0.00    -0.057 C 
ATOM     62  H   UNL     1     144.073 166.699 188.361  0.00  0.00    +0.023 HD
ATOM     63  H   UNL     1     144.682 165.524 189.517  0.00  0.00    +0.023 HD
ATOM     64  H   UNL     1     142.954 165.927 189.456  0.00  0.00    +0.023 HD
ENDBRANCH  24  61
BRANCH   8  65
ATOM     65  C   UNL     1     138.834 170.232 190.884  0.00  0.00    -0.062 C 
ATOM     66  H   UNL     1     138.675 170.124 191.963  0.00  0.00    +0.023 HD
ATOM     67  H   UNL     1     137.860 170.171 190.388  0.00  0.00    +0.023 HD
ATOM     68  H   UNL     1     139.435 169.378 190.551  0.00  0.00    +0.023 HD
ENDBRANCH   8  65
BRANCH  14  69
ATOM     69  C   UNL     1     148.091 172.126 190.379  0.00  0.00    +0.020 C 
ATOM     70  H   UNL     1     148.741 172.065 189.496  0.00  0.00    +0.036 HD
BRANCH  69  71
ATOM     71  C   UNL     1     148.381 173.445 191.105  0.00  0.00    -0.057 C 
ATOM     72  H   UNL     1     147.508 173.827 191.636  0.00  0.00    +0.023 HD
ATOM     73  H   UNL     1     148.716 174.223 190.413  0.00  0.00    +0.023 HD
ATOM     74  H   UNL     1     149.165 173.313 191.860  0.00  0.00    +0.023 HD
ENDBRANCH  69  71
BRANCH  69  75
ATOM     75  C   UNL     1     148.366 170.859 191.238  0.00  0.00    +0.064 C 
ATOM     76  H   UNL     1     147.497 170.671 191.881  0.00  0.00    +0.060 HD
BRANCH  75  77
ATOM     77  C   UNL     1     149.651 170.787 192.111  0.00  0.00    -0.017 C 
ATOM     78  H   UNL     1     150.480 171.124 191.469  0.00  0.00    +0.032 HD
BRANCH  77  79
ATOM     79  C   UNL     1     149.655 171.760 193.297  0.00  0.00    -0.060 C 
ATOM     80  H   UNL     1     149.937 171.241 194.219  0.00  0.00    +0.023 HD
ATOM     81  H   UNL     1     150.384 172.562 193.150  0.00  0.00    +0.023 HD
ATOM     82  H   UNL     1     148.678 172.213 193.472  0.00  0.00    +0.023 HD
ENDBRANCH  77  79
BRANCH  77  83
ATOM     83  C   UNL     1     149.995 169.327 192.481  0.00  0.00    -0.045 C 
ATOM     84  H   UNL     1     149.231 168.680 192.029  0.00  0.00    +0.027 HD
ATOM     85  H   UNL     1     149.925 169.181 193.559  0.00  0.00    +0.027 HD
BRANCH  83  86
ATOM     86  C   UNL     1     151.378 168.870 192.010  0.00  0.00    -0.015 C 
ATOM     87  H   UNL     1     152.117 169.050 192.803  0.00  0.00    +0.030 HD
ATOM     88  H   UNL     1     151.706 169.493 191.168  0.00  0.00    +0.030 HD
BRANCH  86  89
ATOM     89  C   UNL     1     151.457 167.402 191.544  0.00  0.00    +0.109 C 
ATOM     90  H   UNL     1     152.502 167.089 191.662  0.00  0.00    +0.074 HD
BRANCH  89  91
ATOM     91  C   UNL     1     151.052 167.123 190.071  0.00  0.00    +0.031 C 
ATOM     92  H   UNL     1     150.789 168.090 189.624  0.00  0.00    +0.037 HD
BRANCH  91  93
ATOM     93  C   UNL     1     149.827 166.201 189.978  0.00  0.00    -0.056 C 
ATOM     94  H   UNL     1     149.664 165.859 188.951  0.00  0.00    +0.023 HD
ATOM     95  H   UNL     1     148.918 166.712 190.309  0.00  0.00    +0.023 HD
ATOM     96  H   UNL     1     149.934 165.314 190.610  0.00  0.00    +0.023 HD
ENDBRANCH  91  93
BRANCH  91  97
ATOM     97  C   UNL     1     152.242 166.517 189.259  0.00  0.00    +0.115 C 
ATOM     98  H   UNL     1     152.031 165.450 189.117  0.00  0.00    +0.074 HD
BRANCH  97  99
ATOM     99  C   UNL     1     152.432 167.156 187.850  0.00  0.00    +0.013 C 
ATOM    100  H   UNL     1     152.595 168.232 187.969  0.00  0.00    +0.038 HD
BRANCH  99 101
ATOM    101  C   UNL     1     151.164 167.005 186.998  0.00  0.00    -0.056 C 
ATOM    102  H   UNL     1     150.264 166.882 187.612  0.00  0.00    +0.024 HD
ATOM    103  H   UNL     1     151.239 166.126 186.344  0.00  0.00    +0.024 HD
ATOM    104  H   UNL     1     151.022 167.881 186.357  0.00  0.00    +0.024 HD
ENDBRANCH  99 101
BRANCH  99 105
ATOM    105  C   UNL     1     153.594 166.544 187.089  0.00  0.00    -0.064 C 
ATOM    106  C   UNL     1     154.658 167.238 186.667  0.00  0.00    -0.005 C 
ATOM    107  H   UNL     1     153.495 165.481 186.890  0.00  0.00    +0.059 HD
ATOM    108  H   UNL     1     154.710 168.304 186.890  0.00  0.00    +0.078 HD
BRANCH 106 109
ATOM    109  N   UNL     1     155.745 166.752 185.955  0.00  0.00    -0.284 N 
ATOM    110  C   UNL     1     156.181 167.227 184.723  0.00  0.00    +0.206 C 
ATOM    111  O   UNL     1     157.132 166.797 184.080  0.00  0.00    -0.279 OA
ATOM    112  H   UNL     1     155.593 168.070 184.335  0.00  0.00    +0.126 HD
BRANCH 109 113
ATOM    113  C   UNL     1     156.472 165.631 186.537  0.00  0.00    +0.007 C 
ATOM    114  H   UNL     1     155.838 165.008 187.171  0.00  0.00    +0.043 HD
ATOM    115  H   UNL     1     156.882 165.010 185.735  0.00  0.00    +0.043 HD
ATOM    116  H   UNL     1     157.287 166.040 187.141  0.00  0.00    +0.043 HD
ENDBRANCH 109 113
ENDBRANCH 106 109
ENDBRANCH  99 105
ENDBRANCH  97  99
BRANCH  97 117
ATOM    117  O   UNL     1     153.470 166.695 190.005  0.00  0.00    -0.461 OA
BRANCH 117 118
ATOM    118  C   UNL     1     154.278 165.610 190.156  0.00  0.00    +0.304 C 
ATOM    119  O   UNL     1     155.498 165.612 190.064  0.00  0.00    -0.251 OA
BRANCH 118 120
ATOM    120  C   UNL     1     153.457 164.401 190.478  0.00  0.00    +0.033 C 
ATOM    121  H   UNL     1     152.598 164.348 189.806  0.00  0.00    +0.034 HD
ATOM    122  H   UNL     1     154.070 163.500 190.389  0.00  0.00    +0.034 HD
ATOM    123  H   UNL     1     153.094 164.474 191.507  0.00  0.00    +0.034 HD
ENDBRANCH 118 120
ENDBRANCH 117 118
ENDBRANCH  97 117
ENDBRANCH  91  97
ENDBRANCH  89  91
BRANCH  89 124
ATOM    124  O   UNL     1     150.586 166.653 192.425  0.00  0.00    -0.460 OA
BRANCH 124 125
ATOM    125  C   UNL     1     151.167 165.939 193.426  0.00  0.00    +0.324 C 
ATOM    126  O   UNL     1     152.383 165.891 193.602  0.00  0.00    -0.249 OA
BRANCH 125 127
ATOM    127  C   UNL     1     150.160 165.277 194.385  0.00  0.00    +0.105 C 
ATOM    128  H   UNL     1     150.114 164.223 194.078  0.00  0.00    +0.058 HD
BRANCH 127 129
ATOM    129  C   UNL     1     148.762 165.857 194.131  0.00  0.00    -0.039 C 
ATOM    130  H   UNL     1     148.562 165.964 193.058  0.00  0.00    +0.025 HD
ATOM    131  H   UNL     1     147.975 165.237 194.573  0.00  0.00    +0.025 HD
ATOM    132  H   UNL     1     148.674 166.855 194.578  0.00  0.00    +0.025 HD
ENDBRANCH 127 129
BRANCH 127 133
ATOM    133  N   UNL     1     150.463 165.302 195.840  0.00  0.00    -0.296 NA
BRANCH 133 134
ATOM    134  C   UNL     1     150.948 164.044 196.393  0.00  0.00    -0.012 C 
ATOM    135  H   UNL     1     151.943 164.145 196.837  0.00  0.00    +0.039 HD
ATOM    136  H   UNL     1     150.980 163.243 195.651  0.00  0.00    +0.039 HD
ATOM    137  H   UNL     1     150.290 163.711 197.206  0.00  0.00    +0.039 HD
ENDBRANCH 133 134
BRANCH 133 138
ATOM    138  C   UNL     1     149.398 165.875 196.654  0.00  0.00    -0.012 C 
ATOM    139  H   UNL     1     148.502 165.246 196.629  0.00  0.00    +0.039 HD
ATOM    140  H   UNL     1     149.099 166.849 196.251  0.00  0.00    +0.039 HD
ATOM    141  H   UNL     1     149.683 166.025 197.699  0.00  0.00    +0.039 HD
ENDBRANCH 133 138
ENDBRANCH 127 133
ENDBRANCH 125 127
ENDBRANCH 124 125
ENDBRANCH  89 124
ENDBRANCH  86  89
ENDBRANCH  83  86
ENDBRANCH  77  83
ENDBRANCH  75  77
BRANCH  75 142
ATOM    142  O   UNL     1     148.423 169.739 190.335  0.00  0.00    -0.391 OA
ATOM    143  H   UNL     1     149.273 169.760 189.866  0.00  0.00    +0.210 HD
ENDBRANCH  75 142
ENDBRANCH  69  75
ENDBRANCH  14  69
BRANCH  25 144
ATOM    144  O   UNL     1     143.007 165.803 185.740  0.00  0.00    -0.391 OA
ATOM    145  H   UNL     1     142.271 166.003 185.136  0.00  0.00    +0.210 HD
ENDBRANCH  25 144
BRANCH  23 146
ATOM    146  O   UNL     1     145.832 163.603 188.177  0.00  0.00    -0.460 OA
BRANCH 146 147
ATOM    147  C   UNL     1     146.355 162.364 187.978  0.00  0.00    +0.327 C 
ATOM    148  O   UNL     1     147.560 162.136 187.901  0.00  0.00    -0.249 OA
BRANCH 147 149
ATOM    149  C   UNL     1     145.290 161.256 187.877  0.00  0.00    +0.131 C 
ATOM    150  H   UNL     1     144.344 161.810 187.792  0.00  0.00    +0.060 HD
BRANCH 149 151
ATOM    151  C   UNL     1     145.283 160.494 189.222  0.00  0.00    +0.073 C 
ATOM    152  H   UNL     1     145.885 159.579 189.159  0.00  0.00    +0.058 HD
ATOM    153  H   UNL     1     145.729 161.119 190.005  0.00  0.00    +0.058 HD
BRANCH 151 154
ATOM    154  O   UNL     1     143.945 160.175 189.621  0.00  0.00    -0.381 OA
BRANCH 154 155
ATOM    155  C   UNL     1     143.046 161.242 189.350  0.00  0.00    +0.037 C 
ATOM    156  H   UNL     1     142.074 160.858 189.029  0.00  0.00    +0.052 HD
ATOM    157  H   UNL     1     143.463 161.903 188.584  0.00  0.00    +0.052 HD
ATOM    158  H   UNL     1     142.908 161.818 190.269  0.00  0.00    +0.052 HD
ENDBRANCH 154 155
ENDBRANCH 151 154
ENDBRANCH 149 151
BRANCH 149 159
ATOM    159  N   UNL     1     145.434 160.446 186.624  0.00  0.00    -0.294 NA
BRANCH 159 160
ATOM    160  C   UNL     1     144.202 160.457 185.835  0.00  0.00    -0.012 C 
ATOM    161  H   UNL     1     143.298 160.400 186.448  0.00  0.00    +0.039 HD
ATOM    162  H   UNL     1     144.191 159.615 185.133  0.00  0.00    +0.039 HD
ATOM    163  H   UNL     1     144.148 161.362 185.222  0.00  0.00    +0.039 HD
ENDBRANCH 159 160
BRANCH 159 164
ATOM    164  C   UNL     1     145.877 159.074 186.856  0.00  0.00    -0.012 C 
ATOM    165  H   UNL     1     146.056 158.912 187.926  0.00  0.00    +0.039 HD
ATOM    166  H   UNL     1     146.805 158.836 186.327  0.00  0.00    +0.039 HD
ATOM    167  H   UNL     1     145.112 158.351 186.556  0.00  0.00    +0.039 HD
ENDBRANCH 159 164
ENDBRANCH 149 159
ENDBRANCH 147 149
ENDBRANCH 146 147
ENDBRANCH  23 146
BRANCH   4 168
ATOM    168  O   UNL     1     142.241 170.169 186.318  0.00  0.00    -0.376 OA
BRANCH 168 169
ATOM    169  C   UNL     1     142.453 170.637 184.991  0.00  0.00    +0.037 C 
ATOM    170  H   UNL     1     143.520 170.630 184.752  0.00  0.00    +0.052 HD
ATOM    171  H   UNL     1     141.901 170.034 184.264  0.00  0.00    +0.052 HD
ATOM    172  H   UNL     1     142.092 171.667 184.931  0.00  0.00    +0.052 HD
ENDBRANCH 168 169
ENDBRANCH   4 168
BRANCH  10 173
ATOM    173  O   UNL     1     141.230 173.867 191.550  0.00  0.00    -0.376 OA
BRANCH 173 174
ATOM    174  C   UNL     1     141.505 173.850 192.946  0.00  0.00    +0.037 C 
ATOM    175  H   UNL     1     142.052 172.930 193.173  0.00  0.00    +0.052 HD
ATOM    176  H   UNL     1     142.128 174.702 193.231  0.00  0.00    +0.052 HD
ATOM    177  H   UNL     1     140.576 173.850 193.522  0.00  0.00    +0.052 HD
ENDBRANCH 173 174
ENDBRANCH  10 173
TORSDOF 45
ENDMDL
