MODEL 1
REMARK VINA RESULT:      -5.8      0.000      0.000
REMARK  Name = Aplyronine A_conf3
REMARK  45 active torsions:
REMARK  status: ('A' for Active; 'I' for Inactive)
REMARK    1  A    between atoms: C_1  and  C_2
REMARK    2  A    between atoms: C_5  and  O_75
REMARK    3  A    between atoms: C_6  and  C_74
REMARK    4  A    between atoms: C_9  and  C_73
REMARK    5  A    between atoms: C_11  and  O_71
REMARK    6  A    between atoms: C_15  and  C_39
REMARK    7  A    between atoms: C_24  and  O_29
REMARK    8  A    between atoms: C_25  and  C_28
REMARK    9  A    between atoms: C_26  and  O_27
REMARK   10  A    between atoms: O_29  and  C_30
REMARK   11  A    between atoms: C_30  and  C_32
REMARK   12  A    between atoms: C_32  and  C_33
REMARK   13  A    between atoms: C_32  and  N_36
REMARK   14  A    between atoms: C_33  and  O_34
REMARK   15  A    between atoms: O_34  and  C_35
REMARK   16  A    between atoms: N_36  and  C_37
REMARK   17  A    between atoms: N_36  and  C_38
REMARK   18  A    between atoms: C_39  and  C_40
REMARK   19  A    between atoms: C_39  and  C_41
REMARK   20  A    between atoms: C_41  and  C_42
REMARK   21  A    between atoms: C_41  and  O_70
REMARK   22  A    between atoms: C_42  and  C_43
REMARK   23  A    between atoms: C_42  and  C_44
REMARK   24  A    between atoms: C_44  and  C_45
REMARK   25  A    between atoms: C_45  and  C_46
REMARK   26  A    between atoms: C_46  and  C_47
REMARK   27  A    between atoms: C_46  and  O_62
REMARK   28  A    between atoms: C_47  and  C_48
REMARK   29  A    between atoms: C_47  and  C_49
REMARK   30  A    between atoms: C_49  and  C_50
REMARK   31  A    between atoms: C_49  and  O_58
REMARK   32  A    between atoms: C_50  and  C_51
REMARK   33  A    between atoms: C_50  and  C_52
REMARK   34  A    between atoms: C_53  and  N_54
REMARK   35  A    between atoms: N_54  and  C_55
REMARK   36  A    between atoms: O_58  and  C_59
REMARK   37  A    between atoms: C_59  and  C_61
REMARK   38  A    between atoms: O_62  and  C_63
REMARK   39  A    between atoms: C_63  and  C_65
REMARK   40  A    between atoms: C_65  and  C_66
REMARK   41  A    between atoms: C_65  and  N_67
REMARK   42  A    between atoms: N_67  and  C_68
REMARK   43  A    between atoms: N_67  and  C_69
REMARK   44  A    between atoms: O_71  and  C_72
REMARK   45  A    between atoms: O_75  and  C_76
REMARK                            x       y       z     vdW  Elec       q    Type
REMARK                         _______ _______ _______ _____ _____    ______ ____
ROOT
ATOM      1  C   UNL     1     140.642 178.456 188.360  0.00  0.00    -0.017 C 
ATOM      2  C   UNL     1     141.241 177.542 187.268  0.00  0.00    -0.045 C 
ATOM      3  C   UNL     1     142.490 176.755 187.706  0.00  0.00    -0.022 C 
ATOM      4  C   UNL     1     143.747 176.958 186.822  0.00  0.00    +0.079 C 
ATOM      5  C   UNL     1     143.757 176.212 185.484  0.00  0.00    -0.048 C 
ATOM      6  C   UNL     1     144.817 175.436 185.165  0.00  0.00    -0.082 C 
ATOM      7  C   UNL     1     145.072 174.675 183.893  0.00  0.00    -0.032 C 
ATOM      8  C   UNL     1     144.571 173.216 183.883  0.00  0.00    -0.038 C 
ATOM      9  C   UNL     1     145.176 172.350 185.018  0.00  0.00    -0.020 C 
ATOM     10  C   UNL     1     144.387 172.428 186.335  0.00  0.00    +0.077 C 
ATOM     11  C   UNL     1     145.059 171.612 187.407  0.00  0.00    -0.059 C 
ATOM     12  C   UNL     1     145.858 172.109 188.367  0.00  0.00    -0.082 C 
ATOM     13  C   UNL     1     146.383 171.264 189.501  0.00  0.00    +0.003 C 
ATOM     14  C   UNL     1     146.204 171.883 190.908  0.00  0.00    +0.112 C 
ATOM     15  O   UNL     1     144.923 172.558 190.991  0.00  0.00    -0.458 OA
ATOM     16  C   UNL     1     143.786 171.827 191.005  0.00  0.00    +0.332 C 
ATOM     17  O   UNL     1     143.682 170.615 191.006  0.00  0.00    -0.246 OA
ATOM     18  C   UNL     1     142.689 172.810 190.999  0.00  0.00    +0.022 C 
ATOM     19  C   UNL     1     141.422 172.496 190.697  0.00  0.00    -0.055 C 
ATOM     20  C   UNL     1     140.426 173.537 190.676  0.00  0.00    -0.065 C 
ATOM     21  C   UNL     1     139.108 173.368 190.499  0.00  0.00    -0.081 C 
ATOM     22  C   UNL     1     138.049 174.452 190.592  0.00  0.00    +0.003 C 
ATOM     23  C   UNL     1     138.480 175.945 190.687  0.00  0.00    +0.111 C 
ATOM     24  C   UNL     1     139.067 176.504 189.344  0.00  0.00    +0.020 C 
ATOM     25  C   UNL     1     140.010 177.722 189.580  0.00  0.00    +0.064 C 
ATOM     26  H   UNL     1     141.475 179.047 188.771  0.00  0.00    +0.032 HD
ATOM     27  H   UNL     1     141.481 178.167 186.403  0.00  0.00    +0.027 HD
ATOM     28  H   UNL     1     140.483 176.837 186.911  0.00  0.00    +0.027 HD
ATOM     29  H   UNL     1     142.762 177.064 188.722  0.00  0.00    +0.029 HD
ATOM     30  H   UNL     1     142.249 175.686 187.767  0.00  0.00    +0.029 HD
ATOM     31  H   UNL     1     144.588 176.601 187.433  0.00  0.00    +0.064 HD
ATOM     32  H   UNL     1     145.633 175.354 185.886  0.00  0.00    +0.057 HD
ATOM     33  H   UNL     1     146.155 174.690 183.715  0.00  0.00    +0.031 HD
ATOM     34  H   UNL     1     144.645 175.216 183.039  0.00  0.00    +0.031 HD
ATOM     35  H   UNL     1     143.477 173.219 183.968  0.00  0.00    +0.030 HD
ATOM     36  H   UNL     1     146.224 172.633 185.179  0.00  0.00    +0.030 HD
ATOM     37  H   UNL     1     145.179 171.300 184.692  0.00  0.00    +0.030 HD
ATOM     38  H   UNL     1     144.283 173.462 186.671  0.00  0.00    +0.064 HD
ATOM     39  H   UNL     1     144.813 170.551 187.408  0.00  0.00    +0.059 HD
ATOM     40  H   UNL     1     146.119 173.165 188.374  0.00  0.00    +0.057 HD
ATOM     41  H   UNL     1     147.423 170.988 189.310  0.00  0.00    +0.034 HD
ATOM     42  H   UNL     1     145.835 170.310 189.497  0.00  0.00    +0.034 HD
ATOM     43  H   UNL     1     146.210 171.065 191.642  0.00  0.00    +0.074 HD
ATOM     44  H   UNL     1     142.972 173.831 191.240  0.00  0.00    +0.069 HD
ATOM     45  H   UNL     1     141.136 171.474 190.468  0.00  0.00    +0.062 HD
ATOM     46  H   UNL     1     140.822 174.531 190.871  0.00  0.00    +0.061 HD
ATOM     47  H   UNL     1     138.723 172.365 190.329  0.00  0.00    +0.057 HD
ATOM     48  H   UNL     1     137.365 174.323 189.746  0.00  0.00    +0.034 HD
ATOM     49  H   UNL     1     137.462 174.214 191.489  0.00  0.00    +0.034 HD
ATOM     50  H   UNL     1     137.593 176.546 190.935  0.00  0.00    +0.074 HD
ATOM     51  H   UNL     1     139.675 175.720 188.878  0.00  0.00    +0.036 HD
ATOM     52  H   UNL     1     140.861 177.338 190.157  0.00  0.00    +0.060 HD
ENDROOT
BRANCH   1  53
ATOM     53  C   UNL     1     139.731 179.512 187.713  0.00  0.00    -0.060 C 
ATOM     54  H   UNL     1     140.337 180.281 187.218  0.00  0.00    +0.023 HD
ATOM     55  H   UNL     1     139.124 180.033 188.460  0.00  0.00    +0.023 HD
ATOM     56  H   UNL     1     139.064 179.092 186.959  0.00  0.00    +0.023 HD
ENDBRANCH   1  53
BRANCH   5  57
ATOM     57  C   UNL     1     142.587 176.420 184.562  0.00  0.00    -0.041 C 
ATOM     58  H   UNL     1     141.825 177.040 185.043  0.00  0.00    +0.028 HD
ATOM     59  H   UNL     1     142.911 176.907 183.636  0.00  0.00    +0.028 HD
ATOM     60  H   UNL     1     142.089 175.491 184.274  0.00  0.00    +0.028 HD
ENDBRANCH   5  57
BRANCH  24  61
ATOM     61  C   UNL     1     137.905 176.806 188.387  0.00  0.00    -0.057 C 
ATOM     62  H   UNL     1     138.168 177.579 187.659  0.00  0.00    +0.023 HD
ATOM     63  H   UNL     1     137.608 175.916 187.827  0.00  0.00    +0.023 HD
ATOM     64  H   UNL     1     137.034 177.184 188.926  0.00  0.00    +0.023 HD
ENDBRANCH  24  61
BRANCH   8  65
ATOM     65  C   UNL     1     144.917 172.588 182.526  0.00  0.00    -0.062 C 
ATOM     66  H   UNL     1     144.261 171.741 182.301  0.00  0.00    +0.023 HD
ATOM     67  H   UNL     1     145.953 172.231 182.513  0.00  0.00    +0.023 HD
ATOM     68  H   UNL     1     144.812 173.323 181.721  0.00  0.00    +0.023 HD
ENDBRANCH   8  65
BRANCH  14  69
ATOM     69  C   UNL     1     147.262 172.941 191.376  0.00  0.00    +0.020 C 
ATOM     70  H   UNL     1     147.048 173.883 190.851  0.00  0.00    +0.036 HD
BRANCH  69  71
ATOM     71  C   UNL     1     147.025 173.195 192.880  0.00  0.00    -0.057 C 
ATOM     72  H   UNL     1     145.968 173.120 193.149  0.00  0.00    +0.023 HD
ATOM     73  H   UNL     1     147.387 174.188 193.171  0.00  0.00    +0.023 HD
ATOM     74  H   UNL     1     147.542 172.459 193.507  0.00  0.00    +0.023 HD
ENDBRANCH  69  71
BRANCH  69  75
ATOM     75  C   UNL     1     148.720 172.509 191.062  0.00  0.00    +0.064 C 
ATOM     76  H   UNL     1     148.700 171.901 190.148  0.00  0.00    +0.060 HD
BRANCH  75  77
ATOM     77  C   UNL     1     149.457 171.698 192.160  0.00  0.00    -0.017 C 
ATOM     78  H   UNL     1     150.456 171.459 191.775  0.00  0.00    +0.032 HD
BRANCH  77  79
ATOM     79  C   UNL     1     149.730 172.566 193.403  0.00  0.00    -0.060 C 
ATOM     80  H   UNL     1     149.178 173.508 193.395  0.00  0.00    +0.023 HD
ATOM     81  H   UNL     1     150.796 172.816 193.463  0.00  0.00    +0.023 HD
ATOM     82  H   UNL     1     149.467 172.025 194.318  0.00  0.00    +0.023 HD
ENDBRANCH  77  79
BRANCH  77  83
ATOM     83  C   UNL     1     148.809 170.343 192.548  0.00  0.00    -0.045 C 
ATOM     84  H   UNL     1     147.748 170.550 192.738  0.00  0.00    +0.027 HD
ATOM     85  H   UNL     1     149.223 169.999 193.503  0.00  0.00    +0.027 HD
BRANCH  83  86
ATOM     86  C   UNL     1     148.925 169.200 191.533  0.00  0.00    -0.015 C 
ATOM     87  H   UNL     1     149.719 169.419 190.812  0.00  0.00    +0.030 HD
ATOM     88  H   UNL     1     148.018 169.143 190.924  0.00  0.00    +0.030 HD
BRANCH  86  89
ATOM     89  C   UNL     1     149.144 167.819 192.190  0.00  0.00    +0.109 C 
ATOM     90  H   UNL     1     149.270 167.957 193.274  0.00  0.00    +0.074 HD
BRANCH  89  91
ATOM     91  C   UNL     1     150.358 166.972 191.698  0.00  0.00    +0.031 C 
ATOM     92  H   UNL     1     151.118 167.721 191.437  0.00  0.00    +0.037 HD
BRANCH  91  93
ATOM     93  C   UNL     1     150.005 166.225 190.407  0.00  0.00    -0.056 C 
ATOM     94  H   UNL     1     149.212 166.737 189.850  0.00  0.00    +0.023 HD
ATOM     95  H   UNL     1     149.675 165.202 190.606  0.00  0.00    +0.023 HD
ATOM     96  H   UNL     1     150.865 166.183 189.733  0.00  0.00    +0.023 HD
ENDBRANCH  91  93
BRANCH  91  97
ATOM     97  C   UNL     1     150.985 166.032 192.774  0.00  0.00    +0.115 C 
ATOM     98  H   UNL     1     150.609 165.017 192.589  0.00  0.00    +0.074 HD
BRANCH  97  99
ATOM     99  C   UNL     1     152.548 165.984 192.845  0.00  0.00    +0.013 C 
ATOM    100  H   UNL     1     152.805 165.297 193.665  0.00  0.00    +0.038 HD
BRANCH  99 101
ATOM    101  C   UNL     1     153.186 167.316 193.256  0.00  0.00    -0.056 C 
ATOM    102  H   UNL     1     153.079 168.058 192.455  0.00  0.00    +0.024 HD
ATOM    103  H   UNL     1     154.257 167.194 193.448  0.00  0.00    +0.024 HD
ATOM    104  H   UNL     1     152.720 167.738 194.151  0.00  0.00    +0.024 HD
ENDBRANCH  99 101
BRANCH  99 105
ATOM    105  C   UNL     1     153.205 165.441 191.591  0.00  0.00    -0.064 C 
ATOM    106  C   UNL     1     154.033 166.183 190.840  0.00  0.00    -0.005 C 
ATOM    107  H   UNL     1     152.941 164.430 191.306  0.00  0.00    +0.059 HD
ATOM    108  H   UNL     1     154.249 167.202 191.160  0.00  0.00    +0.078 HD
BRANCH 106 109
ATOM    109  N   UNL     1     154.684 165.808 189.674  0.00  0.00    -0.284 N 
ATOM    110  C   UNL     1     155.997 166.117 189.353  0.00  0.00    +0.206 C 
ATOM    111  O   UNL     1     156.582 165.816 188.317  0.00  0.00    -0.279 OA
ATOM    112  H   UNL     1     156.518 166.697 190.126  0.00  0.00    +0.126 HD
BRANCH 109 113
ATOM    113  C   UNL     1     153.904 165.052 188.697  0.00  0.00    +0.007 C 
ATOM    114  H   UNL     1     152.969 165.559 188.438  0.00  0.00    +0.043 HD
ATOM    115  H   UNL     1     154.495 164.923 187.784  0.00  0.00    +0.043 HD
ATOM    116  H   UNL     1     153.662 164.072 189.121  0.00  0.00    +0.043 HD
ENDBRANCH 109 113
ENDBRANCH 106 109
ENDBRANCH  99 105
ENDBRANCH  97  99
BRANCH  97 117
ATOM    117  O   UNL     1     150.514 166.469 194.076  0.00  0.00    -0.461 OA
BRANCH 117 118
ATOM    118  C   UNL     1     149.981 165.517 194.889  0.00  0.00    +0.304 C 
ATOM    119  O   UNL     1     149.139 164.691 194.563  0.00  0.00    -0.251 OA
BRANCH 118 120
ATOM    120  C   UNL     1     150.582 165.621 196.255  0.00  0.00    +0.033 C 
ATOM    121  H   UNL     1     151.632 165.916 196.168  0.00  0.00    +0.034 HD
ATOM    122  H   UNL     1     150.055 166.383 196.836  0.00  0.00    +0.034 HD
ATOM    123  H   UNL     1     150.531 164.650 196.756  0.00  0.00    +0.034 HD
ENDBRANCH 118 120
ENDBRANCH 117 118
ENDBRANCH  97 117
ENDBRANCH  91  97
ENDBRANCH  89  91
BRANCH  89 124
ATOM    124  O   UNL     1     147.943 167.027 192.000  0.00  0.00    -0.460 OA
BRANCH 124 125
ATOM    125  C   UNL     1     147.057 167.020 193.041  0.00  0.00    +0.324 C 
ATOM    126  O   UNL     1     147.208 167.640 194.087  0.00  0.00    -0.249 OA
BRANCH 125 127
ATOM    127  C   UNL     1     145.842 166.143 192.687  0.00  0.00    +0.105 C 
ATOM    128  H   UNL     1     145.777 165.323 193.415  0.00  0.00    +0.058 HD
BRANCH 127 129
ATOM    129  C   UNL     1     146.142 165.550 191.306  0.00  0.00    -0.039 C 
ATOM    130  H   UNL     1     146.080 164.456 191.320  0.00  0.00    +0.025 HD
ATOM    131  H   UNL     1     147.139 165.835 190.953  0.00  0.00    +0.025 HD
ATOM    132  H   UNL     1     145.419 165.905 190.563  0.00  0.00    +0.025 HD
ENDBRANCH 127 129
BRANCH 127 133
ATOM    133  N   UNL     1     144.582 166.941 192.731  0.00  0.00    -0.296 NA
BRANCH 133 134
ATOM    134  C   UNL     1     143.983 167.108 191.405  0.00  0.00    -0.012 C 
ATOM    135  H   UNL     1     143.253 167.925 191.413  0.00  0.00    +0.039 HD
ATOM    136  H   UNL     1     143.476 166.199 191.066  0.00  0.00    +0.039 HD
ATOM    137  H   UNL     1     144.735 167.391 190.663  0.00  0.00    +0.039 HD
ENDBRANCH 133 134
BRANCH 133 138
ATOM    138  C   UNL     1     143.597 166.326 193.630  0.00  0.00    -0.012 C 
ATOM    139  H   UNL     1     143.899 166.455 194.676  0.00  0.00    +0.039 HD
ATOM    140  H   UNL     1     142.600 166.763 193.505  0.00  0.00    +0.039 HD
ATOM    141  H   UNL     1     143.524 165.246 193.472  0.00  0.00    +0.039 HD
ENDBRANCH 133 138
ENDBRANCH 127 133
ENDBRANCH 125 127
ENDBRANCH 124 125
ENDBRANCH  89 124
ENDBRANCH  86  89
ENDBRANCH  83  86
ENDBRANCH  77  83
ENDBRANCH  75  77
BRANCH  75 142
ATOM    142  O   UNL     1     149.467 173.691 190.767  0.00  0.00    -0.391 OA
ATOM    143  H   UNL     1     150.252 173.433 190.256  0.00  0.00    +0.210 HD
ENDBRANCH  75 142
ENDBRANCH  69  75
ENDBRANCH  14  69
BRANCH  25 144
ATOM    144  O   UNL     1     139.380 178.680 190.437  0.00  0.00    -0.391 OA
ATOM    145  H   UNL     1     138.442 178.739 190.194  0.00  0.00    +0.210 HD
ENDBRANCH  25 144
BRANCH  23 146
ATOM    146  O   UNL     1     139.448 176.085 191.744  0.00  0.00    -0.460 OA
BRANCH 146 147
ATOM    147  C   UNL     1     139.024 176.536 192.952  0.00  0.00    +0.327 C 
ATOM    148  O   UNL     1     138.253 177.478 193.117  0.00  0.00    -0.249 OA
BRANCH 147 149
ATOM    149  C   UNL     1     139.565 175.672 194.100  0.00  0.00    +0.131 C 
ATOM    150  H   UNL     1     139.168 176.129 195.018  0.00  0.00    +0.060 HD
BRANCH 149 151
ATOM    151  C   UNL     1     141.103 175.849 194.163  0.00  0.00    +0.073 C 
ATOM    152  H   UNL     1     141.603 174.899 193.931  0.00  0.00    +0.058 HD
ATOM    153  H   UNL     1     141.410 176.585 193.408  0.00  0.00    +0.058 HD
BRANCH 151 154
ATOM    154  O   UNL     1     141.552 176.316 195.444  0.00  0.00    -0.381 OA
BRANCH 154 155
ATOM    155  C   UNL     1     140.457 176.722 196.255  0.00  0.00    +0.037 C 
ATOM    156  H   UNL     1     139.598 176.066 196.091  0.00  0.00    +0.052 HD
ATOM    157  H   UNL     1     140.743 176.719 197.311  0.00  0.00    +0.052 HD
ATOM    158  H   UNL     1     140.178 177.740 195.970  0.00  0.00    +0.052 HD
ENDBRANCH 154 155
ENDBRANCH 151 154
ENDBRANCH 149 151
BRANCH 149 159
ATOM    159  N   UNL     1     139.060 174.265 194.000  0.00  0.00    -0.294 NA
BRANCH 159 160
ATOM    160  C   UNL     1     137.861 174.066 194.821  0.00  0.00    -0.012 C 
ATOM    161  H   UNL     1     137.962 174.519 195.815  0.00  0.00    +0.039 HD
ATOM    162  H   UNL     1     137.656 172.997 194.955  0.00  0.00    +0.039 HD
ATOM    163  H   UNL     1     136.970 174.480 194.338  0.00  0.00    +0.039 HD
ENDBRANCH 159 160
BRANCH 159 164
ATOM    164  C   UNL     1     140.080 173.287 194.380  0.00  0.00    -0.012 C 
ATOM    165  H   UNL     1     140.203 172.532 193.594  0.00  0.00    +0.039 HD
ATOM    166  H   UNL     1     141.064 173.754 194.496  0.00  0.00    +0.039 HD
ATOM    167  H   UNL     1     139.828 172.770 195.313  0.00  0.00    +0.039 HD
ENDBRANCH 159 164
ENDBRANCH 149 159
ENDBRANCH 147 149
ENDBRANCH 146 147
ENDBRANCH  23 146
BRANCH   4 168
ATOM    168  O   UNL     1     143.928 178.369 186.616  0.00  0.00    -0.376 OA
BRANCH 168 169
ATOM    169  C   UNL     1     144.302 179.067 187.799  0.00  0.00    +0.037 C 
ATOM    170  H   UNL     1     145.269 179.542 187.617  0.00  0.00    +0.052 HD
ATOM    171  H   UNL     1     144.419 178.376 188.637  0.00  0.00    +0.052 HD
ATOM    172  H   UNL     1     143.575 179.843 188.043  0.00  0.00    +0.052 HD
ENDBRANCH 168 169
ENDBRANCH   4 168
BRANCH  10 173
ATOM    173  O   UNL     1     143.085 171.878 186.085  0.00  0.00    -0.376 OA
BRANCH 173 174
ATOM    174  C   UNL     1     142.203 172.003 187.191  0.00  0.00    +0.037 C 
ATOM    175  H   UNL     1     142.404 172.926 187.739  0.00  0.00    +0.052 HD
ATOM    176  H   UNL     1     142.374 171.158 187.865  0.00  0.00    +0.052 HD
ATOM    177  H   UNL     1     141.162 171.972 186.858  0.00  0.00    +0.052 HD
ENDBRANCH 173 174
ENDBRANCH  10 173
TORSDOF 45
ENDMDL
MODEL 2
REMARK VINA RESULT:      -5.6      1.884      4.342
REMARK  Name = Aplyronine A_conf3
REMARK  45 active torsions:
REMARK  status: ('A' for Active; 'I' for Inactive)
REMARK    1  A    between atoms: C_1  and  C_2
REMARK    2  A    between atoms: C_5  and  O_75
REMARK    3  A    between atoms: C_6  and  C_74
REMARK    4  A    between atoms: C_9  and  C_73
REMARK    5  A    between atoms: C_11  and  O_71
REMARK    6  A    between atoms: C_15  and  C_39
REMARK    7  A    between atoms: C_24  and  O_29
REMARK    8  A    between atoms: C_25  and  C_28
REMARK    9  A    between atoms: C_26  and  O_27
REMARK   10  A    between atoms: O_29  and  C_30
REMARK   11  A    between atoms: C_30  and  C_32
REMARK   12  A    between atoms: C_32  and  C_33
REMARK   13  A    between atoms: C_32  and  N_36
REMARK   14  A    between atoms: C_33  and  O_34
REMARK   15  A    between atoms: O_34  and  C_35
REMARK   16  A    between atoms: N_36  and  C_37
REMARK   17  A    between atoms: N_36  and  C_38
REMARK   18  A    between atoms: C_39  and  C_40
REMARK   19  A    between atoms: C_39  and  C_41
REMARK   20  A    between atoms: C_41  and  C_42
REMARK   21  A    between atoms: C_41  and  O_70
REMARK   22  A    between atoms: C_42  and  C_43
REMARK   23  A    between atoms: C_42  and  C_44
REMARK   24  A    between atoms: C_44  and  C_45
REMARK   25  A    between atoms: C_45  and  C_46
REMARK   26  A    between atoms: C_46  and  C_47
REMARK   27  A    between atoms: C_46  and  O_62
REMARK   28  A    between atoms: C_47  and  C_48
REMARK   29  A    between atoms: C_47  and  C_49
REMARK   30  A    between atoms: C_49  and  C_50
REMARK   31  A    between atoms: C_49  and  O_58
REMARK   32  A    between atoms: C_50  and  C_51
REMARK   33  A    between atoms: C_50  and  C_52
REMARK   34  A    between atoms: C_53  and  N_54
REMARK   35  A    between atoms: N_54  and  C_55
REMARK   36  A    between atoms: O_58  and  C_59
REMARK   37  A    between atoms: C_59  and  C_61
REMARK   38  A    between atoms: O_62  and  C_63
REMARK   39  A    between atoms: C_63  and  C_65
REMARK   40  A    between atoms: C_65  and  C_66
REMARK   41  A    between atoms: C_65  and  N_67
REMARK   42  A    between atoms: N_67  and  C_68
REMARK   43  A    between atoms: N_67  and  C_69
REMARK   44  A    between atoms: O_71  and  C_72
REMARK   45  A    between atoms: O_75  and  C_76
REMARK                            x       y       z     vdW  Elec       q    Type
REMARK                         _______ _______ _______ _____ _____    ______ ____
ROOT
ATOM      1  C   UNL     1     142.010 177.090 187.137  0.00  0.00    -0.017 C 
ATOM      2  C   UNL     1     142.368 175.934 186.176  0.00  0.00    -0.045 C 
ATOM      3  C   UNL     1     143.490 175.008 186.681  0.00  0.00    -0.022 C 
ATOM      4  C   UNL     1     144.701 174.851 185.726  0.00  0.00    +0.079 C 
ATOM      5  C   UNL     1     144.493 173.929 184.520  0.00  0.00    -0.048 C 
ATOM      6  C   UNL     1     145.380 172.937 184.283  0.00  0.00    -0.082 C 
ATOM      7  C   UNL     1     145.415 171.967 183.135  0.00  0.00    -0.032 C 
ATOM      8  C   UNL     1     144.672 170.635 183.371  0.00  0.00    -0.038 C 
ATOM      9  C   UNL     1     145.195 169.849 184.600  0.00  0.00    -0.020 C 
ATOM     10  C   UNL     1     144.521 170.258 185.921  0.00  0.00    +0.077 C 
ATOM     11  C   UNL     1     145.113 169.499 187.078  0.00  0.00    -0.059 C 
ATOM     12  C   UNL     1     146.048 169.979 187.916  0.00  0.00    -0.082 C 
ATOM     13  C   UNL     1     146.496 169.227 189.145  0.00  0.00    +0.003 C 
ATOM     14  C   UNL     1     146.520 170.066 190.446  0.00  0.00    +0.112 C 
ATOM     15  O   UNL     1     145.382 170.965 190.475  0.00  0.00    -0.458 OA
ATOM     16  C   UNL     1     144.141 170.460 190.648  0.00  0.00    +0.332 C 
ATOM     17  O   UNL     1     143.830 169.299 190.840  0.00  0.00    -0.246 OA
ATOM     18  C   UNL     1     143.230 171.612 190.534  0.00  0.00    +0.022 C 
ATOM     19  C   UNL     1     141.911 171.491 190.335  0.00  0.00    -0.055 C 
ATOM     20  C   UNL     1     141.109 172.680 190.194  0.00  0.00    -0.065 C 
ATOM     21  C   UNL     1     139.773 172.727 190.099  0.00  0.00    -0.081 C 
ATOM     22  C   UNL     1     138.924 173.985 190.065  0.00  0.00    +0.003 C 
ATOM     23  C   UNL     1     139.610 175.374 189.910  0.00  0.00    +0.111 C 
ATOM     24  C   UNL     1     140.192 175.617 188.474  0.00  0.00    +0.020 C 
ATOM     25  C   UNL     1     141.345 176.666 188.481  0.00  0.00    +0.064 C 
ATOM     26  H   UNL     1     142.958 177.575 187.418  0.00  0.00    +0.032 HD
ATOM     27  H   UNL     1     142.653 176.374 185.216  0.00  0.00    +0.027 HD
ATOM     28  H   UNL     1     141.479 175.333 185.965  0.00  0.00    +0.027 HD
ATOM     29  H   UNL     1     143.879 175.408 187.625  0.00  0.00    +0.029 HD
ATOM     30  H   UNL     1     143.075 174.020 186.916  0.00  0.00    +0.029 HD
ATOM     31  H   UNL     1     145.508 174.441 186.350  0.00  0.00    +0.064 HD
ATOM     32  H   UNL     1     146.217 172.815 184.974  0.00  0.00    +0.057 HD
ATOM     33  H   UNL     1     146.471 171.760 182.912  0.00  0.00    +0.031 HD
ATOM     34  H   UNL     1     145.031 172.445 182.224  0.00  0.00    +0.031 HD
ATOM     35  H   UNL     1     143.603 170.847 183.499  0.00  0.00    +0.030 HD
ATOM     36  H   UNL     1     146.284 169.960 184.674  0.00  0.00    +0.030 HD
ATOM     37  H   UNL     1     144.996 168.780 184.441  0.00  0.00    +0.030 HD
ATOM     38  H   UNL     1     144.619 171.332 186.096  0.00  0.00    +0.064 HD
ATOM     39  H   UNL     1     144.689 168.512 187.254  0.00  0.00    +0.059 HD
ATOM     40  H   UNL     1     146.486 170.960 187.749  0.00  0.00    +0.057 HD
ATOM     41  H   UNL     1     147.458 168.744 188.958  0.00  0.00    +0.034 HD
ATOM     42  H   UNL     1     145.793 168.397 189.311  0.00  0.00    +0.034 HD
ATOM     43  H   UNL     1     146.435 169.375 191.296  0.00  0.00    +0.074 HD
ATOM     44  H   UNL     1     143.700 172.590 190.602  0.00  0.00    +0.069 HD
ATOM     45  H   UNL     1     141.439 170.515 190.280  0.00  0.00    +0.062 HD
ATOM     46  H   UNL     1     141.682 173.603 190.216  0.00  0.00    +0.061 HD
ATOM     47  H   UNL     1     139.211 171.795 190.102  0.00  0.00    +0.057 HD
ATOM     48  H   UNL     1     138.173 173.859 189.278  0.00  0.00    +0.034 HD
ATOM     49  H   UNL     1     138.367 173.989 191.011  0.00  0.00    +0.034 HD
ATOM     50  H   UNL     1     138.858 176.154 190.098  0.00  0.00    +0.074 HD
ATOM     51  H   UNL     1     140.625 174.677 188.112  0.00  0.00    +0.036 HD
ATOM     52  H   UNL     1     142.154 176.224 189.075  0.00  0.00    +0.060 HD
ENDROOT
BRANCH   1  53
ATOM     53  C   UNL     1     141.252 178.188 186.372  0.00  0.00    -0.060 C 
ATOM     54  H   UNL     1     141.588 179.178 186.702  0.00  0.00    +0.023 HD
ATOM     55  H   UNL     1     140.177 178.146 186.569  0.00  0.00    +0.023 HD
ATOM     56  H   UNL     1     141.407 178.137 185.294  0.00  0.00    +0.023 HD
ENDBRANCH   1  53
BRANCH   5  57
ATOM     57  C   UNL     1     143.317 174.208 183.625  0.00  0.00    -0.041 C 
ATOM     58  H   UNL     1     143.566 173.986 182.583  0.00  0.00    +0.028 HD
ATOM     59  H   UNL     1     142.455 173.601 183.924  0.00  0.00    +0.028 HD
ATOM     60  H   UNL     1     142.992 175.251 183.647  0.00  0.00    +0.028 HD
ENDBRANCH   5  57
BRANCH  24  61
ATOM     61  C   UNL     1     139.038 175.981 187.530  0.00  0.00    -0.057 C 
ATOM     62  H   UNL     1     138.592 176.946 187.785  0.00  0.00    +0.023 HD
ATOM     63  H   UNL     1     139.376 176.039 186.492  0.00  0.00    +0.023 HD
ATOM     64  H   UNL     1     138.229 175.250 187.591  0.00  0.00    +0.023 HD
ENDBRANCH  24  61
BRANCH   8  65
ATOM     65  C   UNL     1     144.813 169.765 182.115  0.00  0.00    -0.062 C 
ATOM     66  H   UNL     1     145.815 169.330 182.044  0.00  0.00    +0.023 HD
ATOM     67  H   UNL     1     144.632 170.354 181.208  0.00  0.00    +0.023 HD
ATOM     68  H   UNL     1     144.087 168.945 182.127  0.00  0.00    +0.023 HD
ENDBRANCH   8  65
BRANCH  14  69
ATOM     69  C   UNL     1     147.773 170.973 190.701  0.00  0.00    +0.020 C 
ATOM     70  H   UNL     1     148.590 170.603 190.066  0.00  0.00    +0.036 HD
BRANCH  69  71
ATOM     71  C   UNL     1     147.420 172.393 190.207  0.00  0.00    -0.057 C 
ATOM     72  H   UNL     1     148.173 172.788 189.520  0.00  0.00    +0.023 HD
ATOM     73  H   UNL     1     147.323 173.087 191.050  0.00  0.00    +0.023 HD
ATOM     74  H   UNL     1     146.476 172.412 189.652  0.00  0.00    +0.023 HD
ENDBRANCH  69  71
BRANCH  69  75
ATOM     75  C   UNL     1     148.237 170.951 192.182  0.00  0.00    +0.064 C 
ATOM     76  H   UNL     1     147.620 171.671 192.737  0.00  0.00    +0.060 HD
BRANCH  75  77
ATOM     77  C   UNL     1     149.727 171.292 192.450  0.00  0.00    -0.017 C 
ATOM     78  H   UNL     1     150.135 171.723 191.528  0.00  0.00    +0.032 HD
BRANCH  77  79
ATOM     79  C   UNL     1     149.859 172.424 193.485  0.00  0.00    -0.060 C 
ATOM     80  H   UNL     1     149.247 173.296 193.246  0.00  0.00    +0.023 HD
ATOM     81  H   UNL     1     150.900 172.766 193.542  0.00  0.00    +0.023 HD
ATOM     82  H   UNL     1     149.575 172.072 194.483  0.00  0.00    +0.023 HD
ENDBRANCH  77  79
BRANCH  77  83
ATOM     83  C   UNL     1     150.640 170.090 192.806  0.00  0.00    -0.045 C 
ATOM     84  H   UNL     1     150.016 169.381 193.366  0.00  0.00    +0.027 HD
ATOM     85  H   UNL     1     151.421 170.417 193.502  0.00  0.00    +0.027 HD
BRANCH  83  86
ATOM     86  C   UNL     1     151.311 169.356 191.640  0.00  0.00    -0.015 C 
ATOM     87  H   UNL     1     152.355 169.672 191.550  0.00  0.00    +0.030 HD
ATOM     88  H   UNL     1     150.857 169.659 190.692  0.00  0.00    +0.030 HD
BRANCH  86  89
ATOM     89  C   UNL     1     151.210 167.818 191.747  0.00  0.00    +0.109 C 
ATOM     90  H   UNL     1     150.374 167.473 191.121  0.00  0.00    +0.074 HD
BRANCH  89  91
ATOM     91  C   UNL     1     150.994 167.208 193.167  0.00  0.00    +0.031 C 
ATOM     92  H   UNL     1     151.174 168.051 193.849  0.00  0.00    +0.037 HD
BRANCH  91  93
ATOM     93  C   UNL     1     152.063 166.153 193.468  0.00  0.00    -0.056 C 
ATOM     94  H   UNL     1     152.988 166.611 193.836  0.00  0.00    +0.023 HD
ATOM     95  H   UNL     1     152.308 165.557 192.583  0.00  0.00    +0.023 HD
ATOM     96  H   UNL     1     151.730 165.474 194.257  0.00  0.00    +0.023 HD
ENDBRANCH  91  93
BRANCH  91  97
ATOM     97  C   UNL     1     149.550 166.687 193.447  0.00  0.00    +0.115 C 
ATOM     98  H   UNL     1     148.971 167.520 193.868  0.00  0.00    +0.074 HD
BRANCH  97  99
ATOM     99  C   UNL     1     148.765 166.091 192.232  0.00  0.00    +0.013 C 
ATOM    100  H   UNL     1     149.339 165.221 191.881  0.00  0.00    +0.038 HD
BRANCH  99 101
ATOM    101  C   UNL     1     148.716 167.023 191.016  0.00  0.00    -0.056 C 
ATOM    102  H   UNL     1     147.748 167.537 190.962  0.00  0.00    +0.024 HD
ATOM    103  H   UNL     1     148.838 166.459 190.085  0.00  0.00    +0.024 HD
ATOM    104  H   UNL     1     149.490 167.796 191.056  0.00  0.00    +0.024 HD
ENDBRANCH  99 101
BRANCH  99 105
ATOM    105  C   UNL     1     147.375 165.593 192.580  0.00  0.00    -0.064 C 
ATOM    106  C   UNL     1     146.267 166.246 192.200  0.00  0.00    -0.005 C 
ATOM    107  H   UNL     1     147.321 164.699 193.188  0.00  0.00    +0.059 HD
ATOM    108  H   UNL     1     146.379 167.154 191.607  0.00  0.00    +0.078 HD
BRANCH 106 109
ATOM    109  N   UNL     1     144.950 165.902 192.463  0.00  0.00    -0.284 N 
ATOM    110  C   UNL     1     143.964 165.709 191.506  0.00  0.00    +0.206 C 
ATOM    111  O   UNL     1     142.789 165.428 191.719  0.00  0.00    -0.279 OA
ATOM    112  H   UNL     1     144.316 165.841 190.475  0.00  0.00    +0.126 HD
BRANCH 109 113
ATOM    113  C   UNL     1     144.571 165.764 193.867  0.00  0.00    +0.007 C 
ATOM    114  H   UNL     1     145.431 165.528 194.502  0.00  0.00    +0.043 HD
ATOM    115  H   UNL     1     144.127 166.703 194.216  0.00  0.00    +0.043 HD
ATOM    116  H   UNL     1     143.840 164.955 193.958  0.00  0.00    +0.043 HD
ENDBRANCH 109 113
ENDBRANCH 106 109
ENDBRANCH  99 105
ENDBRANCH  97  99
BRANCH  97 117
ATOM    117  O   UNL     1     149.642 165.638 194.448  0.00  0.00    -0.461 OA
BRANCH 117 118
ATOM    118  C   UNL     1     149.422 166.000 195.741  0.00  0.00    +0.304 C 
ATOM    119  O   UNL     1     150.267 166.045 196.624  0.00  0.00    -0.251 OA
BRANCH 118 120
ATOM    120  C   UNL     1     147.979 166.349 195.932  0.00  0.00    +0.033 C 
ATOM    121  H   UNL     1     147.363 165.470 195.723  0.00  0.00    +0.034 HD
ATOM    122  H   UNL     1     147.805 166.656 196.967  0.00  0.00    +0.034 HD
ATOM    123  H   UNL     1     147.697 167.148 195.241  0.00  0.00    +0.034 HD
ENDBRANCH 118 120
ENDBRANCH 117 118
ENDBRANCH  97 117
ENDBRANCH  91  97
ENDBRANCH  89  91
BRANCH  89 124
ATOM    124  O   UNL     1     152.421 167.241 191.195  0.00  0.00    -0.460 OA
BRANCH 124 125
ATOM    125  C   UNL     1     152.378 166.909 189.870  0.00  0.00    +0.324 C 
ATOM    126  O   UNL     1     152.806 167.613 188.963  0.00  0.00    -0.249 OA
BRANCH 125 127
ATOM    127  C   UNL     1     151.739 165.518 189.700  0.00  0.00    +0.105 C 
ATOM    128  H   UNL     1     150.821 165.479 190.300  0.00  0.00    +0.058 HD
BRANCH 127 129
ATOM    129  C   UNL     1     152.748 164.521 190.279  0.00  0.00    -0.039 C 
ATOM    130  H   UNL     1     153.666 164.491 189.682  0.00  0.00    +0.025 HD
ATOM    131  H   UNL     1     152.332 163.509 190.326  0.00  0.00    +0.025 HD
ATOM    132  H   UNL     1     153.035 164.803 191.299  0.00  0.00    +0.025 HD
ENDBRANCH 127 129
BRANCH 127 133
ATOM    133  N   UNL     1     151.403 165.262 188.269  0.00  0.00    -0.296 NA
BRANCH 133 134
ATOM    134  C   UNL     1     152.150 164.129 187.716  0.00  0.00    -0.012 C 
ATOM    135  H   UNL     1     152.027 164.081 186.628  0.00  0.00    +0.039 HD
ATOM    136  H   UNL     1     151.821 163.175 188.141  0.00  0.00    +0.039 HD
ATOM    137  H   UNL     1     153.225 164.241 187.888  0.00  0.00    +0.039 HD
ENDBRANCH 133 134
BRANCH 133 138
ATOM    138  C   UNL     1     149.965 165.020 188.098  0.00  0.00    -0.012 C 
ATOM    139  H   UNL     1     149.654 165.260 187.075  0.00  0.00    +0.039 HD
ATOM    140  H   UNL     1     149.698 163.977 188.302  0.00  0.00    +0.039 HD
ATOM    141  H   UNL     1     149.366 165.663 188.750  0.00  0.00    +0.039 HD
ENDBRANCH 133 138
ENDBRANCH 127 133
ENDBRANCH 125 127
ENDBRANCH 124 125
ENDBRANCH  89 124
ENDBRANCH  86  89
ENDBRANCH  83  86
ENDBRANCH  77  83
ENDBRANCH  75  77
BRANCH  75 142
ATOM    142  O   UNL     1     147.946 169.654 192.707  0.00  0.00    -0.391 OA
ATOM    143  H   UNL     1     148.547 169.017 192.288  0.00  0.00    +0.210 HD
ENDBRANCH  75 142
ENDBRANCH  69  75
ENDBRANCH  14  69
BRANCH  25 144
ATOM    144  O   UNL     1     140.947 177.837 189.203  0.00  0.00    -0.391 OA
ATOM    145  H   UNL     1     140.675 178.514 188.564  0.00  0.00    +0.210 HD
ENDBRANCH  25 144
BRANCH  23 146
ATOM    146  O   UNL     1     140.656 175.489 190.893  0.00  0.00    -0.460 OA
BRANCH 146 147
ATOM    147  C   UNL     1     140.370 176.099 192.071  0.00  0.00    +0.327 C 
ATOM    148  O   UNL     1     139.783 177.172 192.181  0.00  0.00    -0.249 OA
BRANCH 147 149
ATOM    149  C   UNL     1     140.804 175.243 193.271  0.00  0.00    +0.131 C 
ATOM    150  H   UNL     1     140.970 175.957 194.091  0.00  0.00    +0.060 HD
BRANCH 149 151
ATOM    151  C   UNL     1     142.189 174.624 192.955  0.00  0.00    +0.073 C 
ATOM    152  H   UNL     1     142.199 173.560 193.228  0.00  0.00    +0.058 HD
ATOM    153  H   UNL     1     142.376 174.697 191.876  0.00  0.00    +0.058 HD
BRANCH 151 154
ATOM    154  O   UNL     1     143.260 175.293 193.636  0.00  0.00    -0.381 OA
BRANCH 154 155
ATOM    155  C   UNL     1     142.784 175.998 194.775  0.00  0.00    +0.037 C 
ATOM    156  H   UNL     1     142.267 176.912 194.469  0.00  0.00    +0.052 HD
ATOM    157  H   UNL     1     142.117 175.363 195.366  0.00  0.00    +0.052 HD
ATOM    158  H   UNL     1     143.644 176.274 195.392  0.00  0.00    +0.052 HD
ENDBRANCH 154 155
ENDBRANCH 151 154
ENDBRANCH 149 151
BRANCH 149 159
ATOM    159  N   UNL     1     139.722 174.287 193.670  0.00  0.00    -0.294 NA
BRANCH 159 160
ATOM    160  C   UNL     1     138.976 174.777 194.834  0.00  0.00    -0.012 C 
ATOM    161  H   UNL     1     137.921 174.963 194.599  0.00  0.00    +0.039 HD
ATOM    162  H   UNL     1     139.410 175.713 195.206  0.00  0.00    +0.039 HD
ATOM    163  H   UNL     1     139.029 174.073 195.670  0.00  0.00    +0.039 HD
ENDBRANCH 159 160
BRANCH 159 164
ATOM    164  C   UNL     1     140.247 172.951 193.953  0.00  0.00    -0.012 C 
ATOM    165  H   UNL     1     141.036 172.686 193.237  0.00  0.00    +0.039 HD
ATOM    166  H   UNL     1     140.718 172.902 194.941  0.00  0.00    +0.039 HD
ATOM    167  H   UNL     1     139.468 172.182 193.901  0.00  0.00    +0.039 HD
ENDBRANCH 159 164
ENDBRANCH 149 159
ENDBRANCH 147 149
ENDBRANCH 146 147
ENDBRANCH  23 146
BRANCH   4 168
ATOM    168  O   UNL     1     145.107 176.161 185.297  0.00  0.00    -0.376 OA
BRANCH 168 169
ATOM    169  C   UNL     1     146.361 176.170 184.623  0.00  0.00    +0.037 C 
ATOM    170  H   UNL     1     146.198 175.813 183.604  0.00  0.00    +0.052 HD
ATOM    171  H   UNL     1     147.067 175.493 185.109  0.00  0.00    +0.052 HD
ATOM    172  H   UNL     1     146.773 177.180 184.574  0.00  0.00    +0.052 HD
ENDBRANCH 168 169
ENDBRANCH   4 168
BRANCH  10 173
ATOM    173  O   UNL     1     143.130 169.920 185.812  0.00  0.00    -0.376 OA
BRANCH 173 174
ATOM    174  C   UNL     1     142.268 170.927 186.322  0.00  0.00    +0.037 C 
ATOM    175  H   UNL     1     142.842 171.694 186.847  0.00  0.00    +0.052 HD
ATOM    176  H   UNL     1     141.582 170.462 187.036  0.00  0.00    +0.052 HD
ATOM    177  H   UNL     1     141.678 171.372 185.517  0.00  0.00    +0.052 HD
ENDBRANCH 173 174
ENDBRANCH  10 173
TORSDOF 45
ENDMDL
MODEL 3
REMARK VINA RESULT:      -5.6      3.082     13.876
REMARK  Name = Aplyronine A_conf3
REMARK  45 active torsions:
REMARK  status: ('A' for Active; 'I' for Inactive)
REMARK    1  A    between atoms: C_1  and  C_2
REMARK    2  A    between atoms: C_5  and  O_75
REMARK    3  A    between atoms: C_6  and  C_74
REMARK    4  A    between atoms: C_9  and  C_73
REMARK    5  A    between atoms: C_11  and  O_71
REMARK    6  A    between atoms: C_15  and  C_39
REMARK    7  A    between atoms: C_24  and  O_29
REMARK    8  A    between atoms: C_25  and  C_28
REMARK    9  A    between atoms: C_26  and  O_27
REMARK   10  A    between atoms: O_29  and  C_30
REMARK   11  A    between atoms: C_30  and  C_32
REMARK   12  A    between atoms: C_32  and  C_33
REMARK   13  A    between atoms: C_32  and  N_36
REMARK   14  A    between atoms: C_33  and  O_34
REMARK   15  A    between atoms: O_34  and  C_35
REMARK   16  A    between atoms: N_36  and  C_37
REMARK   17  A    between atoms: N_36  and  C_38
REMARK   18  A    between atoms: C_39  and  C_40
REMARK   19  A    between atoms: C_39  and  C_41
REMARK   20  A    between atoms: C_41  and  C_42
REMARK   21  A    between atoms: C_41  and  O_70
REMARK   22  A    between atoms: C_42  and  C_43
REMARK   23  A    between atoms: C_42  and  C_44
REMARK   24  A    between atoms: C_44  and  C_45
REMARK   25  A    between atoms: C_45  and  C_46
REMARK   26  A    between atoms: C_46  and  C_47
REMARK   27  A    between atoms: C_46  and  O_62
REMARK   28  A    between atoms: C_47  and  C_48
REMARK   29  A    between atoms: C_47  and  C_49
REMARK   30  A    between atoms: C_49  and  C_50
REMARK   31  A    between atoms: C_49  and  O_58
REMARK   32  A    between atoms: C_50  and  C_51
REMARK   33  A    between atoms: C_50  and  C_52
REMARK   34  A    between atoms: C_53  and  N_54
REMARK   35  A    between atoms: N_54  and  C_55
REMARK   36  A    between atoms: O_58  and  C_59
REMARK   37  A    between atoms: C_59  and  C_61
REMARK   38  A    between atoms: O_62  and  C_63
REMARK   39  A    between atoms: C_63  and  C_65
REMARK   40  A    between atoms: C_65  and  C_66
REMARK   41  A    between atoms: C_65  and  N_67
REMARK   42  A    between atoms: N_67  and  C_68
REMARK   43  A    between atoms: N_67  and  C_69
REMARK   44  A    between atoms: O_71  and  C_72
REMARK   45  A    between atoms: O_75  and  C_76
REMARK                            x       y       z     vdW  Elec       q    Type
REMARK                         _______ _______ _______ _____ _____    ______ ____
ROOT
ATOM      1  C   UNL     1     153.322 166.368 190.273  0.00  0.00    -0.017 C 
ATOM      2  C   UNL     1     152.021 166.149 191.076  0.00  0.00    -0.045 C 
ATOM      3  C   UNL     1     150.802 166.924 190.542  0.00  0.00    -0.022 C 
ATOM      4  C   UNL     1     150.102 167.851 191.569  0.00  0.00    +0.079 C 
ATOM      5  C   UNL     1     149.201 167.158 192.596  0.00  0.00    -0.048 C 
ATOM      6  C   UNL     1     147.930 167.588 192.761  0.00  0.00    -0.082 C 
ATOM      7  C   UNL     1     146.900 167.110 193.746  0.00  0.00    -0.032 C 
ATOM      8  C   UNL     1     145.977 165.981 193.244  0.00  0.00    -0.038 C 
ATOM      9  C   UNL     1     145.189 166.356 191.962  0.00  0.00    -0.020 C 
ATOM     10  C   UNL     1     145.960 166.067 190.663  0.00  0.00    +0.077 C 
ATOM     11  C   UNL     1     145.163 166.505 189.463  0.00  0.00    -0.059 C 
ATOM     12  C   UNL     1     145.345 167.658 188.797  0.00  0.00    -0.082 C 
ATOM     13  C   UNL     1     144.616 167.976 187.514  0.00  0.00    +0.003 C 
ATOM     14  C   UNL     1     145.520 168.482 186.364  0.00  0.00    +0.112 C 
ATOM     15  O   UNL     1     146.777 167.758 186.368  0.00  0.00    -0.458 OA
ATOM     16  C   UNL     1     146.794 166.456 186.006  0.00  0.00    +0.332 C 
ATOM     17  O   UNL     1     145.862 165.781 185.612  0.00  0.00    -0.246 OA
ATOM     18  C   UNL     1     148.184 166.013 186.210  0.00  0.00    +0.022 C 
ATOM     19  C   UNL     1     148.544 164.724 186.266  0.00  0.00    -0.055 C 
ATOM     20  C   UNL     1     149.924 164.390 186.512  0.00  0.00    -0.065 C 
ATOM     21  C   UNL     1     150.457 163.159 186.490  0.00  0.00    -0.081 C 
ATOM     22  C   UNL     1     151.930 162.822 186.636  0.00  0.00    +0.003 C 
ATOM     23  C   UNL     1     152.936 163.930 187.063  0.00  0.00    +0.111 C 
ATOM     24  C   UNL     1     152.788 164.352 188.566  0.00  0.00    +0.020 C 
ATOM     25  C   UNL     1     153.325 165.793 188.825  0.00  0.00    +0.064 C 
ATOM     26  H   UNL     1     153.445 167.457 190.157  0.00  0.00    +0.032 HD
ATOM     27  H   UNL     1     152.216 166.434 192.114  0.00  0.00    +0.027 HD
ATOM     28  H   UNL     1     151.776 165.083 191.111  0.00  0.00    +0.027 HD
ATOM     29  H   UNL     1     151.126 167.560 189.709  0.00  0.00    +0.029 HD
ATOM     30  H   UNL     1     150.073 166.220 190.122  0.00  0.00    +0.029 HD
ATOM     31  H   UNL     1     149.490 168.536 190.966  0.00  0.00    +0.064 HD
ATOM     32  H   UNL     1     147.579 168.414 192.139  0.00  0.00    +0.057 HD
ATOM     33  H   UNL     1     146.291 167.979 194.031  0.00  0.00    +0.031 HD
ATOM     34  H   UNL     1     147.387 166.798 194.679  0.00  0.00    +0.031 HD
ATOM     35  H   UNL     1     146.586 165.088 193.052  0.00  0.00    +0.030 HD
ATOM     36  H   UNL     1     144.891 167.411 192.007  0.00  0.00    +0.030 HD
ATOM     37  H   UNL     1     144.261 165.766 191.938  0.00  0.00    +0.030 HD
ATOM     38  H   UNL     1     146.931 166.567 190.662  0.00  0.00    +0.064 HD
ATOM     39  H   UNL     1     144.430 165.785 189.102  0.00  0.00    +0.059 HD
ATOM     40  H   UNL     1     146.067 168.390 189.150  0.00  0.00    +0.057 HD
ATOM     41  H   UNL     1     143.792 168.664 187.714  0.00  0.00    +0.034 HD
ATOM     42  H   UNL     1     144.133 167.054 187.160  0.00  0.00    +0.034 HD
ATOM     43  H   UNL     1     145.007 168.277 185.414  0.00  0.00    +0.074 HD
ATOM     44  H   UNL     1     148.916 166.806 186.334  0.00  0.00    +0.069 HD
ATOM     45  H   UNL     1     147.816 163.931 186.130  0.00  0.00    +0.062 HD
ATOM     46  H   UNL     1     150.563 165.252 186.683  0.00  0.00    +0.061 HD
ATOM     47  H   UNL     1     149.809 162.308 186.295  0.00  0.00    +0.057 HD
ATOM     48  H   UNL     1     152.011 161.973 187.323  0.00  0.00    +0.034 HD
ATOM     49  H   UNL     1     152.244 162.443 185.655  0.00  0.00    +0.034 HD
ATOM     50  H   UNL     1     153.956 163.543 186.928  0.00  0.00    +0.074 HD
ATOM     51  H   UNL     1     151.722 164.364 188.820  0.00  0.00    +0.036 HD
ATOM     52  H   UNL     1     152.678 166.465 188.247  0.00  0.00    +0.060 HD
ENDROOT
BRANCH   1  53
ATOM     53  C   UNL     1     154.535 165.954 191.123  0.00  0.00    -0.060 C 
ATOM     54  H   UNL     1     154.885 166.804 191.720  0.00  0.00    +0.023 HD
ATOM     55  H   UNL     1     155.379 165.648 190.498  0.00  0.00    +0.023 HD
ATOM     56  H   UNL     1     154.309 165.144 191.817  0.00  0.00    +0.023 HD
ENDBRANCH   1  53
BRANCH   5  57
ATOM     57  C   UNL     1     149.802 166.046 193.412  0.00  0.00    -0.041 C 
ATOM     58  H   UNL     1     150.877 166.201 193.538  0.00  0.00    +0.028 HD
ATOM     59  H   UNL     1     149.329 165.997 194.399  0.00  0.00    +0.028 HD
ATOM     60  H   UNL     1     149.686 165.060 192.955  0.00  0.00    +0.028 HD
ENDBRANCH   5  57
BRANCH  24  61
ATOM     61  C   UNL     1     153.454 163.284 189.445  0.00  0.00    -0.057 C 
ATOM     62  H   UNL     1     153.543 163.611 190.485  0.00  0.00    +0.023 HD
ATOM     63  H   UNL     1     152.882 162.352 189.441  0.00  0.00    +0.023 HD
ATOM     64  H   UNL     1     154.471 163.070 189.110  0.00  0.00    +0.023 HD
ENDBRANCH  24  61
BRANCH   8  65
ATOM     65  C   UNL     1     144.988 165.622 194.361  0.00  0.00    -0.062 C 
ATOM     66  H   UNL     1     143.954 165.659 194.003  0.00  0.00    +0.023 HD
ATOM     67  H   UNL     1     145.081 166.316 195.204  0.00  0.00    +0.023 HD
ATOM     68  H   UNL     1     145.181 164.613 194.741  0.00  0.00    +0.023 HD
ENDBRANCH   8  65
BRANCH  14  69
ATOM     69  C   UNL     1     145.914 169.999 186.366  0.00  0.00    +0.020 C 
ATOM     70  H   UNL     1     145.809 170.372 187.395  0.00  0.00    +0.036 HD
BRANCH  69  71
ATOM     71  C   UNL     1     147.412 170.086 186.001  0.00  0.00    -0.057 C 
ATOM     72  H   UNL     1     147.565 170.335 184.947  0.00  0.00    +0.023 HD
ATOM     73  H   UNL     1     147.921 169.137 186.209  0.00  0.00    +0.023 HD
ATOM     74  H   UNL     1     147.928 170.869 186.567  0.00  0.00    +0.023 HD
ENDBRANCH  69  71
BRANCH  69  75
ATOM     75  C   UNL     1     145.019 170.853 185.427  0.00  0.00    +0.064 C 
ATOM     76  H   UNL     1     145.675 171.359 184.707  0.00  0.00    +0.060 HD
BRANCH  75  77
ATOM     77  C   UNL     1     144.129 171.930 186.103  0.00  0.00    -0.017 C 
ATOM     78  H   UNL     1     144.761 172.809 186.284  0.00  0.00    +0.032 HD
BRANCH  77  79
ATOM     79  C   UNL     1     143.044 172.439 185.137  0.00  0.00    -0.060 C 
ATOM     80  H   UNL     1     142.493 171.632 184.648  0.00  0.00    +0.023 HD
ATOM     81  H   UNL     1     143.497 173.047 184.344  0.00  0.00    +0.023 HD
ATOM     82  H   UNL     1     142.322 173.072 185.664  0.00  0.00    +0.023 HD
ENDBRANCH  77  79
BRANCH  77  83
ATOM     83  C   UNL     1     143.526 171.541 187.478  0.00  0.00    -0.045 C 
ATOM     84  H   UNL     1     143.826 170.502 187.666  0.00  0.00    +0.027 HD
ATOM     85  H   UNL     1     142.433 171.530 187.408  0.00  0.00    +0.027 HD
BRANCH  83  86
ATOM     86  C   UNL     1     143.923 172.404 188.682  0.00  0.00    -0.015 C 
ATOM     87  H   UNL     1     143.084 173.039 188.980  0.00  0.00    +0.030 HD
ATOM     88  H   UNL     1     144.707 173.111 188.397  0.00  0.00    +0.030 HD
BRANCH  86  89
ATOM     89  C   UNL     1     144.441 171.578 189.880  0.00  0.00    +0.109 C 
ATOM     90  H   UNL     1     144.815 170.612 189.511  0.00  0.00    +0.074 HD
BRANCH  89  91
ATOM     91  C   UNL     1     143.431 171.263 191.027  0.00  0.00    +0.031 C 
ATOM     92  H   UNL     1     144.046 171.288 191.938  0.00  0.00    +0.037 HD
BRANCH  91  93
ATOM     93  C   UNL     1     142.891 169.835 190.892  0.00  0.00    -0.056 C 
ATOM     94  H   UNL     1     142.236 169.572 191.730  0.00  0.00    +0.023 HD
ATOM     95  H   UNL     1     143.697 169.097 190.847  0.00  0.00    +0.023 HD
ATOM     96  H   UNL     1     142.281 169.733 189.991  0.00  0.00    +0.023 HD
ENDBRANCH  91  93
BRANCH  91  97
ATOM     97  C   UNL     1     142.292 172.314 191.209  0.00  0.00    +0.115 C 
ATOM     98  H   UNL     1     142.033 172.700 190.214  0.00  0.00    +0.074 HD
BRANCH  97  99
ATOM     99  C   UNL     1     140.984 171.823 191.914  0.00  0.00    +0.013 C 
ATOM    100  H   UNL     1     141.156 170.776 192.204  0.00  0.00    +0.038 HD
BRANCH  99 101
ATOM    101  C   UNL     1     139.769 171.759 190.981  0.00  0.00    -0.056 C 
ATOM    102  H   UNL     1     139.365 170.741 190.943  0.00  0.00    +0.024 HD
ATOM    103  H   UNL     1     140.045 172.040 189.959  0.00  0.00    +0.024 HD
ATOM    104  H   UNL     1     138.959 172.416 191.313  0.00  0.00    +0.024 HD
ENDBRANCH  99 101
BRANCH  99 105
ATOM    105  C   UNL     1     140.645 172.582 193.182  0.00  0.00    -0.064 C 
ATOM    106  C   UNL     1     139.589 173.405 193.260  0.00  0.00    -0.005 C 
ATOM    107  H   UNL     1     141.324 172.458 194.016  0.00  0.00    +0.059 HD
ATOM    108  H   UNL     1     138.948 173.511 192.384  0.00  0.00    +0.078 HD
BRANCH 106 109
ATOM    109  N   UNL     1     139.181 174.159 194.351  0.00  0.00    -0.284 N 
ATOM    110  C   UNL     1     137.910 174.146 194.907  0.00  0.00    +0.206 C 
ATOM    111  O   UNL     1     137.525 174.823 195.855  0.00  0.00    -0.279 OA
ATOM    112  H   UNL     1     137.217 173.455 194.410  0.00  0.00    +0.126 HD
BRANCH 109 113
ATOM    113  C   UNL     1     140.171 175.061 194.935  0.00  0.00    +0.007 C 
ATOM    114  H   UNL     1     139.865 176.110 194.859  0.00  0.00    +0.043 HD
ATOM    115  H   UNL     1     140.305 174.814 195.994  0.00  0.00    +0.043 HD
ATOM    116  H   UNL     1     141.119 174.937 194.404  0.00  0.00    +0.043 HD
ENDBRANCH 109 113
ENDBRANCH 106 109
ENDBRANCH  99 105
ENDBRANCH  97  99
BRANCH  97 117
ATOM    117  O   UNL     1     142.818 173.408 192.006  0.00  0.00    -0.461 OA
BRANCH 117 118
ATOM    118  C   UNL     1     142.654 174.664 191.511  0.00  0.00    +0.304 C 
ATOM    119  O   UNL     1     142.233 174.943 190.396  0.00  0.00    -0.251 OA
BRANCH 118 120
ATOM    120  C   UNL     1     143.060 175.673 192.539  0.00  0.00    +0.033 C 
ATOM    121  H   UNL     1     143.839 175.246 193.178  0.00  0.00    +0.034 HD
ATOM    122  H   UNL     1     143.464 176.562 192.048  0.00  0.00    +0.034 HD
ATOM    123  H   UNL     1     142.200 175.934 193.161  0.00  0.00    +0.034 HD
ENDBRANCH 118 120
ENDBRANCH 117 118
ENDBRANCH  97 117
ENDBRANCH  91  97
ENDBRANCH  89  91
BRANCH  89 124
ATOM    124  O   UNL     1     145.571 172.278 190.464  0.00  0.00    -0.460 OA
BRANCH 124 125
ATOM    125  C   UNL     1     146.660 171.509 190.769  0.00  0.00    +0.324 C 
ATOM    126  O   UNL     1     147.068 170.578 190.085  0.00  0.00    -0.249 OA
BRANCH 125 127
ATOM    127  C   UNL     1     147.299 172.007 192.078  0.00  0.00    +0.105 C 
ATOM    128  H   UNL     1     147.154 171.242 192.852  0.00  0.00    +0.058 HD
BRANCH 127 129
ATOM    129  C   UNL     1     146.515 173.262 192.476  0.00  0.00    -0.039 C 
ATOM    130  H   UNL     1     145.919 173.090 193.379  0.00  0.00    +0.025 HD
ATOM    131  H   UNL     1     145.844 173.589 191.675  0.00  0.00    +0.025 HD
ATOM    132  H   UNL     1     147.195 174.095 192.692  0.00  0.00    +0.025 HD
ENDBRANCH 127 129
BRANCH 127 133
ATOM    133  N   UNL     1     148.760 172.250 191.894  0.00  0.00    -0.296 NA
BRANCH 133 134
ATOM    134  C   UNL     1     149.029 173.306 190.915  0.00  0.00    -0.012 C 
ATOM    135  H   UNL     1     150.064 173.655 191.000  0.00  0.00    +0.039 HD
ATOM    136  H   UNL     1     148.365 174.166 191.047  0.00  0.00    +0.039 HD
ATOM    137  H   UNL     1     148.925 172.933 189.892  0.00  0.00    +0.039 HD
ENDBRANCH 133 134
BRANCH 133 138
ATOM    138  C   UNL     1     149.403 172.600 193.168  0.00  0.00    -0.012 C 
ATOM    139  H   UNL     1     148.915 172.079 193.999  0.00  0.00    +0.039 HD
ATOM    140  H   UNL     1     150.466 172.338 193.174  0.00  0.00    +0.039 HD
ATOM    141  H   UNL     1     149.309 173.667 193.388  0.00  0.00    +0.039 HD
ENDBRANCH 133 138
ENDBRANCH 127 133
ENDBRANCH 125 127
ENDBRANCH 124 125
ENDBRANCH  89 124
ENDBRANCH  86  89
ENDBRANCH  83  86
ENDBRANCH  77  83
ENDBRANCH  75  77
BRANCH  75 142
ATOM    142  O   UNL     1     144.192 169.954 184.685  0.00  0.00    -0.391 OA
ATOM    143  H   UNL     1     143.353 169.850 185.164  0.00  0.00    +0.210 HD
ENDBRANCH  75 142
ENDBRANCH  69  75
ENDBRANCH  14  69
BRANCH  25 144
ATOM    144  O   UNL     1     154.630 165.947 188.255  0.00  0.00    -0.391 OA
ATOM    145  H   UNL     1     155.288 165.756 188.941  0.00  0.00    +0.210 HD
ENDBRANCH  25 144
BRANCH  23 146
ATOM    146  O   UNL     1     152.757 165.077 186.209  0.00  0.00    -0.460 OA
BRANCH 146 147
ATOM    147  C   UNL     1     153.252 165.025 184.947  0.00  0.00    +0.327 C 
ATOM    148  O   UNL     1     152.570 165.038 183.925  0.00  0.00    -0.249 OA
BRANCH 147 149
ATOM    149  C   UNL     1     154.788 165.026 184.941  0.00  0.00    +0.131 C 
ATOM    150  H   UNL     1     155.082 164.749 185.964  0.00  0.00    +0.060 HD
BRANCH 149 151
ATOM    151  C   UNL     1     155.276 166.482 184.735  0.00  0.00    +0.073 C 
ATOM    152  H   UNL     1     155.942 166.538 183.863  0.00  0.00    +0.058 HD
ATOM    153  H   UNL     1     154.409 167.125 184.537  0.00  0.00    +0.058 HD
BRANCH 151 154
ATOM    154  O   UNL     1     155.960 167.002 185.883  0.00  0.00    -0.381 OA
BRANCH 154 155
ATOM    155  C   UNL     1     157.306 166.546 185.930  0.00  0.00    +0.037 C 
ATOM    156  H   UNL     1     157.624 166.405 186.967  0.00  0.00    +0.052 HD
ATOM    157  H   UNL     1     157.413 165.613 185.369  0.00  0.00    +0.052 HD
ATOM    158  H   UNL     1     157.942 167.307 185.470  0.00  0.00    +0.052 HD
ENDBRANCH 154 155
ENDBRANCH 151 154
ENDBRANCH 149 151
BRANCH 149 159
ATOM    159  N   UNL     1     155.324 164.001 183.988  0.00  0.00    -0.294 NA
BRANCH 159 160
ATOM    160  C   UNL     1     156.160 163.013 184.678  0.00  0.00    -0.012 C 
ATOM    161  H   UNL     1     155.569 162.355 185.327  0.00  0.00    +0.039 HD
ATOM    162  H   UNL     1     156.916 163.510 185.296  0.00  0.00    +0.039 HD
ATOM    163  H   UNL     1     156.717 162.394 183.968  0.00  0.00    +0.039 HD
ENDBRANCH 159 160
BRANCH 159 164
ATOM    164  C   UNL     1     156.087 164.612 182.898  0.00  0.00    -0.012 C 
ATOM    165  H   UNL     1     157.162 164.589 183.121  0.00  0.00    +0.039 HD
ATOM    166  H   UNL     1     155.969 164.057 181.962  0.00  0.00    +0.039 HD
ATOM    167  H   UNL     1     155.797 165.654 182.725  0.00  0.00    +0.039 HD
ENDBRANCH 159 164
ENDBRANCH 149 159
ENDBRANCH 147 149
ENDBRANCH 146 147
ENDBRANCH  23 146
BRANCH   4 168
ATOM    168  O   UNL     1     151.111 168.634 192.227  0.00  0.00    -0.376 OA
BRANCH 168 169
ATOM    169  C   UNL     1     151.408 169.852 191.553  0.00  0.00    +0.037 C 
ATOM    170  H   UNL     1     151.663 169.611 190.519  0.00  0.00    +0.052 HD
ATOM    171  H   UNL     1     152.270 170.347 192.006  0.00  0.00    +0.052 HD
ATOM    172  H   UNL     1     150.543 170.519 191.550  0.00  0.00    +0.052 HD
ENDBRANCH 168 169
ENDBRANCH   4 168
BRANCH  10 173
ATOM    173  O   UNL     1     146.156 164.647 190.591  0.00  0.00    -0.376 OA
BRANCH 173 174
ATOM    174  C   UNL     1     146.058 164.135 189.270  0.00  0.00    +0.037 C 
ATOM    175  H   UNL     1     145.037 163.811 189.059  0.00  0.00    +0.052 HD
ATOM    176  H   UNL     1     146.718 163.266 189.188  0.00  0.00    +0.052 HD
ATOM    177  H   UNL     1     146.382 164.883 188.542  0.00  0.00    +0.052 HD
ENDBRANCH 173 174
ENDBRANCH  10 173
TORSDOF 45
ENDMDL
MODEL 4
REMARK VINA RESULT:      -5.5      3.425     13.942
REMARK  Name = Aplyronine A_conf3
REMARK  45 active torsions:
REMARK  status: ('A' for Active; 'I' for Inactive)
REMARK    1  A    between atoms: C_1  and  C_2
REMARK    2  A    between atoms: C_5  and  O_75
REMARK    3  A    between atoms: C_6  and  C_74
REMARK    4  A    between atoms: C_9  and  C_73
REMARK    5  A    between atoms: C_11  and  O_71
REMARK    6  A    between atoms: C_15  and  C_39
REMARK    7  A    between atoms: C_24  and  O_29
REMARK    8  A    between atoms: C_25  and  C_28
REMARK    9  A    between atoms: C_26  and  O_27
REMARK   10  A    between atoms: O_29  and  C_30
REMARK   11  A    between atoms: C_30  and  C_32
REMARK   12  A    between atoms: C_32  and  C_33
REMARK   13  A    between atoms: C_32  and  N_36
REMARK   14  A    between atoms: C_33  and  O_34
REMARK   15  A    between atoms: O_34  and  C_35
REMARK   16  A    between atoms: N_36  and  C_37
REMARK   17  A    between atoms: N_36  and  C_38
REMARK   18  A    between atoms: C_39  and  C_40
REMARK   19  A    between atoms: C_39  and  C_41
REMARK   20  A    between atoms: C_41  and  C_42
REMARK   21  A    between atoms: C_41  and  O_70
REMARK   22  A    between atoms: C_42  and  C_43
REMARK   23  A    between atoms: C_42  and  C_44
REMARK   24  A    between atoms: C_44  and  C_45
REMARK   25  A    between atoms: C_45  and  C_46
REMARK   26  A    between atoms: C_46  and  C_47
REMARK   27  A    between atoms: C_46  and  O_62
REMARK   28  A    between atoms: C_47  and  C_48
REMARK   29  A    between atoms: C_47  and  C_49
REMARK   30  A    between atoms: C_49  and  C_50
REMARK   31  A    between atoms: C_49  and  O_58
REMARK   32  A    between atoms: C_50  and  C_51
REMARK   33  A    between atoms: C_50  and  C_52
REMARK   34  A    between atoms: C_53  and  N_54
REMARK   35  A    between atoms: N_54  and  C_55
REMARK   36  A    between atoms: O_58  and  C_59
REMARK   37  A    between atoms: C_59  and  C_61
REMARK   38  A    between atoms: O_62  and  C_63
REMARK   39  A    between atoms: C_63  and  C_65
REMARK   40  A    between atoms: C_65  and  C_66
REMARK   41  A    between atoms: C_65  and  N_67
REMARK   42  A    between atoms: N_67  and  C_68
REMARK   43  A    between atoms: N_67  and  C_69
REMARK   44  A    between atoms: O_71  and  C_72
REMARK   45  A    between atoms: O_75  and  C_76
REMARK                            x       y       z     vdW  Elec       q    Type
REMARK                         _______ _______ _______ _____ _____    ______ ____
ROOT
ATOM      1  C   UNL     1     153.473 166.385 190.276  0.00  0.00    -0.017 C 
ATOM      2  C   UNL     1     152.160 166.166 191.060  0.00  0.00    -0.045 C 
ATOM      3  C   UNL     1     150.952 166.952 190.518  0.00  0.00    -0.022 C 
ATOM      4  C   UNL     1     150.245 167.875 191.544  0.00  0.00    +0.079 C 
ATOM      5  C   UNL     1     149.327 167.178 192.554  0.00  0.00    -0.048 C 
ATOM      6  C   UNL     1     148.056 167.614 192.706  0.00  0.00    -0.082 C 
ATOM      7  C   UNL     1     147.011 167.134 193.674  0.00  0.00    -0.032 C 
ATOM      8  C   UNL     1     146.088 166.014 193.151  0.00  0.00    -0.038 C 
ATOM      9  C   UNL     1     145.319 166.404 191.863  0.00  0.00    -0.020 C 
ATOM     10  C   UNL     1     146.104 166.122 190.571  0.00  0.00    +0.077 C 
ATOM     11  C   UNL     1     145.325 166.575 189.364  0.00  0.00    -0.059 C 
ATOM     12  C   UNL     1     145.522 167.732 188.711  0.00  0.00    -0.082 C 
ATOM     13  C   UNL     1     144.812 168.065 187.422  0.00  0.00    +0.003 C 
ATOM     14  C   UNL     1     145.732 168.576 186.287  0.00  0.00    +0.112 C 
ATOM     15  O   UNL     1     146.985 167.845 186.301  0.00  0.00    -0.458 OA
ATOM     16  C   UNL     1     147.000 166.546 185.928  0.00  0.00    +0.332 C 
ATOM     17  O   UNL     1     146.069 165.879 185.517  0.00  0.00    -0.246 OA
ATOM     18  C   UNL     1     148.384 166.093 186.146  0.00  0.00    +0.022 C 
ATOM     19  C   UNL     1     148.736 164.801 186.195  0.00  0.00    -0.055 C 
ATOM     20  C   UNL     1     150.111 164.457 186.456  0.00  0.00    -0.065 C 
ATOM     21  C   UNL     1     150.637 163.224 186.430  0.00  0.00    -0.081 C 
ATOM     22  C   UNL     1     152.106 162.877 186.592  0.00  0.00    +0.003 C 
ATOM     23  C   UNL     1     153.113 163.976 187.040  0.00  0.00    +0.111 C 
ATOM     24  C   UNL     1     152.949 164.386 188.546  0.00  0.00    +0.020 C 
ATOM     25  C   UNL     1     153.490 165.821 188.823  0.00  0.00    +0.064 C 
ATOM     26  H   UNL     1     153.603 167.473 190.171  0.00  0.00    +0.032 HD
ATOM     27  H   UNL     1     152.344 166.441 192.103  0.00  0.00    +0.027 HD
ATOM     28  H   UNL     1     151.909 165.101 191.084  0.00  0.00    +0.027 HD
ATOM     29  H   UNL     1     151.290 167.593 189.695  0.00  0.00    +0.029 HD
ATOM     30  H   UNL     1     150.224 166.256 190.083  0.00  0.00    +0.029 HD
ATOM     31  H   UNL     1     149.644 168.569 190.939  0.00  0.00    +0.064 HD
ATOM     32  H   UNL     1     147.718 168.448 192.087  0.00  0.00    +0.057 HD
ATOM     33  H   UNL     1     146.404 168.004 193.959  0.00  0.00    +0.031 HD
ATOM     34  H   UNL     1     147.485 166.811 194.611  0.00  0.00    +0.031 HD
ATOM     35  H   UNL     1     146.694 165.120 192.959  0.00  0.00    +0.030 HD
ATOM     36  H   UNL     1     145.027 167.461 191.912  0.00  0.00    +0.030 HD
ATOM     37  H   UNL     1     144.388 165.821 191.822  0.00  0.00    +0.030 HD
ATOM     38  H   UNL     1     147.078 166.616 190.586  0.00  0.00    +0.064 HD
ATOM     39  H   UNL     1     144.593 165.862 188.988  0.00  0.00    +0.059 HD
ATOM     40  H   UNL     1     146.244 168.458 189.080  0.00  0.00    +0.057 HD
ATOM     41  H   UNL     1     143.988 168.756 187.617  0.00  0.00    +0.034 HD
ATOM     42  H   UNL     1     144.327 167.149 187.054  0.00  0.00    +0.034 HD
ATOM     43  H   UNL     1     145.230 168.382 185.330  0.00  0.00    +0.074 HD
ATOM     44  H   UNL     1     149.119 166.881 186.286  0.00  0.00    +0.069 HD
ATOM     45  H   UNL     1     148.005 164.014 186.043  0.00  0.00    +0.062 HD
ATOM     46  H   UNL     1     150.753 165.314 186.642  0.00  0.00    +0.061 HD
ATOM     47  H   UNL     1     149.986 162.378 186.219  0.00  0.00    +0.057 HD
ATOM     48  H   UNL     1     152.173 162.021 187.273  0.00  0.00    +0.034 HD
ATOM     49  H   UNL     1     152.430 162.505 185.611  0.00  0.00    +0.034 HD
ATOM     50  H   UNL     1     154.132 163.584 186.915  0.00  0.00    +0.074 HD
ATOM     51  H   UNL     1     151.879 164.401 188.786  0.00  0.00    +0.036 HD
ATOM     52  H   UNL     1     152.855 166.502 188.243  0.00  0.00    +0.060 HD
ENDROOT
BRANCH   1  53
ATOM     53  C   UNL     1     154.672 165.956 191.138  0.00  0.00    -0.060 C 
ATOM     54  H   UNL     1     155.525 165.702 190.497  0.00  0.00    +0.023 HD
ATOM     55  H   UNL     1     154.448 165.058 191.721  0.00  0.00    +0.023 HD
ATOM     56  H   UNL     1     155.004 166.738 191.821  0.00  0.00    +0.023 HD
ENDBRANCH   1  53
BRANCH   5  57
ATOM     57  C   UNL     1     149.911 166.056 193.367  0.00  0.00    -0.041 C 
ATOM     58  H   UNL     1     149.117 165.467 193.835  0.00  0.00    +0.028 HD
ATOM     59  H   UNL     1     150.518 165.400 192.734  0.00  0.00    +0.028 HD
ATOM     60  H   UNL     1     150.558 166.398 194.179  0.00  0.00    +0.028 HD
ENDBRANCH   5  57
BRANCH  24  61
ATOM     61  C   UNL     1     153.597 163.306 189.424  0.00  0.00    -0.057 C 
ATOM     62  H   UNL     1     154.549 162.962 189.009  0.00  0.00    +0.023 HD
ATOM     63  H   UNL     1     153.794 163.678 190.432  0.00  0.00    +0.023 HD
ATOM     64  H   UNL     1     152.963 162.420 189.497  0.00  0.00    +0.023 HD
ENDBRANCH  24  61
BRANCH   8  65
ATOM     65  C   UNL     1     145.083 165.652 194.252  0.00  0.00    -0.062 C 
ATOM     66  H   UNL     1     145.261 166.237 195.160  0.00  0.00    +0.023 HD
ATOM     67  H   UNL     1     145.152 164.589 194.511  0.00  0.00    +0.023 HD
ATOM     68  H   UNL     1     144.057 165.845 193.920  0.00  0.00    +0.023 HD
ENDBRANCH   8  65
BRANCH  14  69
ATOM     69  C   UNL     1     146.135 170.091 186.307  0.00  0.00    +0.020 C 
ATOM     70  H   UNL     1     146.305 170.379 187.354  0.00  0.00    +0.036 HD
BRANCH  69  71
ATOM     71  C   UNL     1     147.489 170.217 185.575  0.00  0.00    -0.057 C 
ATOM     72  H   UNL     1     147.542 171.119 184.960  0.00  0.00    +0.023 HD
ATOM     73  H   UNL     1     147.667 169.348 184.930  0.00  0.00    +0.023 HD
ATOM     74  H   UNL     1     148.329 170.286 186.275  0.00  0.00    +0.023 HD
ENDBRANCH  69  71
BRANCH  69  75
ATOM     75  C   UNL     1     145.040 171.011 185.703  0.00  0.00    +0.064 C 
ATOM     76  H   UNL     1     145.483 171.548 184.855  0.00  0.00    +0.060 HD
BRANCH  75  77
ATOM     77  C   UNL     1     144.408 172.060 186.656  0.00  0.00    -0.017 C 
ATOM     78  H   UNL     1     145.218 172.476 187.267  0.00  0.00    +0.032 HD
BRANCH  77  79
ATOM     79  C   UNL     1     143.870 173.270 185.870  0.00  0.00    -0.060 C 
ATOM     80  H   UNL     1     142.882 173.593 186.206  0.00  0.00    +0.023 HD
ATOM     81  H   UNL     1     143.784 173.022 184.805  0.00  0.00    +0.023 HD
ATOM     82  H   UNL     1     144.554 174.121 185.954  0.00  0.00    +0.023 HD
ENDBRANCH  77  79
BRANCH  77  83
ATOM     83  C   UNL     1     143.351 171.517 187.652  0.00  0.00    -0.045 C 
ATOM     84  H   UNL     1     143.323 170.428 187.513  0.00  0.00    +0.027 HD
ATOM     85  H   UNL     1     142.358 171.881 187.367  0.00  0.00    +0.027 HD
BRANCH  83  86
ATOM     86  C   UNL     1     143.570 171.828 189.138  0.00  0.00    -0.015 C 
ATOM     87  H   UNL     1     142.765 172.470 189.508  0.00  0.00    +0.030 HD
ATOM     88  H   UNL     1     144.474 172.429 189.268  0.00  0.00    +0.030 HD
BRANCH  86  89
ATOM     89  C   UNL     1     143.710 170.562 190.012  0.00  0.00    +0.109 C 
ATOM     90  H   UNL     1     143.673 169.675 189.363  0.00  0.00    +0.074 HD
BRANCH  89  91
ATOM     91  C   UNL     1     142.650 170.342 191.136  0.00  0.00    +0.031 C 
ATOM     92  H   UNL     1     143.130 170.746 192.038  0.00  0.00    +0.037 HD
BRANCH  91  93
ATOM     93  C   UNL     1     142.425 168.846 191.380  0.00  0.00    -0.056 C 
ATOM     94  H   UNL     1     142.492 168.598 192.446  0.00  0.00    +0.023 HD
ATOM     95  H   UNL     1     143.153 168.232 190.842  0.00  0.00    +0.023 HD
ATOM     96  H   UNL     1     141.423 168.546 191.065  0.00  0.00    +0.023 HD
ENDBRANCH  91  93
BRANCH  91  97
ATOM     97  C   UNL     1     141.310 171.119 190.939  0.00  0.00    +0.115 C 
ATOM     98  H   UNL     1     141.523 171.995 190.311  0.00  0.00    +0.074 HD
BRANCH  97  99
ATOM     99  C   UNL     1     140.119 170.324 190.309  0.00  0.00    +0.013 C 
ATOM    100  H   UNL     1     140.384 169.258 190.368  0.00  0.00    +0.038 HD
BRANCH  99 101
ATOM    101  C   UNL     1     139.932 170.582 188.809  0.00  0.00    -0.056 C 
ATOM    102  H   UNL     1     140.835 170.299 188.254  0.00  0.00    +0.024 HD
ATOM    103  H   UNL     1     139.749 171.644 188.615  0.00  0.00    +0.024 HD
ATOM    104  H   UNL     1     139.102 170.006 188.391  0.00  0.00    +0.024 HD
ENDBRANCH  99 101
BRANCH  99 105
ATOM    105  C   UNL     1     138.805 170.494 191.047  0.00  0.00    -0.064 C 
ATOM    106  C   UNL     1     137.632 170.128 190.511  0.00  0.00    -0.005 C 
ATOM    107  H   UNL     1     138.857 170.966 192.021  0.00  0.00    +0.059 HD
ATOM    108  H   UNL     1     137.635 169.677 189.519  0.00  0.00    +0.078 HD
BRANCH 106 109
ATOM    109  N   UNL     1     136.371 170.240 191.077  0.00  0.00    -0.284 N 
ATOM    110  C   UNL     1     135.672 169.212 191.692  0.00  0.00    +0.206 C 
ATOM    111  O   UNL     1     134.547 169.286 192.175  0.00  0.00    -0.279 OA
ATOM    112  H   UNL     1     136.215 168.258 191.713  0.00  0.00    +0.126 HD
BRANCH 109 113
ATOM    113  C   UNL     1     135.721 171.545 190.984  0.00  0.00    +0.007 C 
ATOM    114  H   UNL     1     135.516 171.829 189.947  0.00  0.00    +0.043 HD
ATOM    115  H   UNL     1     134.772 171.516 191.531  0.00  0.00    +0.043 HD
ATOM    116  H   UNL     1     136.378 172.299 191.427  0.00  0.00    +0.043 HD
ENDBRANCH 109 113
ENDBRANCH 106 109
ENDBRANCH  99 105
ENDBRANCH  97  99
BRANCH  97 117
ATOM    117  O   UNL     1     140.869 171.583 192.243  0.00  0.00    -0.461 OA
BRANCH 117 118
ATOM    118  C   UNL     1     141.107 172.888 192.545  0.00  0.00    +0.304 C 
ATOM    119  O   UNL     1     141.763 173.668 191.869  0.00  0.00    -0.251 OA
BRANCH 118 120
ATOM    120  C   UNL     1     140.438 173.241 193.836  0.00  0.00    +0.033 C 
ATOM    121  H   UNL     1     140.524 172.400 194.530  0.00  0.00    +0.034 HD
ATOM    122  H   UNL     1     140.928 174.110 194.283  0.00  0.00    +0.034 HD
ATOM    123  H   UNL     1     139.378 173.444 193.660  0.00  0.00    +0.034 HD
ENDBRANCH 118 120
ENDBRANCH 117 118
ENDBRANCH  97 117
ENDBRANCH  91  97
ENDBRANCH  89  91
BRANCH  89 124
ATOM    124  O   UNL     1     145.020 170.579 190.636  0.00  0.00    -0.460 OA
BRANCH 124 125
ATOM    125  C   UNL     1     145.517 171.813 190.954  0.00  0.00    +0.324 C 
ATOM    126  O   UNL     1     144.886 172.686 191.538  0.00  0.00    -0.249 OA
BRANCH 125 127
ATOM    127  C   UNL     1     146.981 171.921 190.492  0.00  0.00    +0.105 C 
ATOM    128  H   UNL     1     147.009 172.469 189.541  0.00  0.00    +0.058 HD
BRANCH 127 129
ATOM    129  C   UNL     1     147.449 170.483 190.244  0.00  0.00    -0.039 C 
ATOM    130  H   UNL     1     148.534 170.391 190.367  0.00  0.00    +0.025 HD
ATOM    131  H   UNL     1     147.185 170.141 189.237  0.00  0.00    +0.025 HD
ATOM    132  H   UNL     1     146.983 169.792 190.956  0.00  0.00    +0.025 HD
ENDBRANCH 127 129
BRANCH 127 133
ATOM    133  N   UNL     1     147.803 172.648 191.503  0.00  0.00    -0.296 NA
BRANCH 133 134
ATOM    134  C   UNL     1     148.217 171.782 192.610  0.00  0.00    -0.012 C 
ATOM    135  H   UNL     1     148.117 172.306 193.567  0.00  0.00    +0.039 HD
ATOM    136  H   UNL     1     149.256 171.454 192.506  0.00  0.00    +0.039 HD
ATOM    137  H   UNL     1     147.574 170.901 192.686  0.00  0.00    +0.039 HD
ENDBRANCH 133 134
BRANCH 133 138
ATOM    138  C   UNL     1     148.994 173.246 190.887  0.00  0.00    -0.012 C 
ATOM    139  H   UNL     1     149.713 173.550 191.656  0.00  0.00    +0.039 HD
ATOM    140  H   UNL     1     149.495 172.549 190.206  0.00  0.00    +0.039 HD
ATOM    141  H   UNL     1     148.749 174.156 190.331  0.00  0.00    +0.039 HD
ENDBRANCH 133 138
ENDBRANCH 127 133
ENDBRANCH 125 127
ENDBRANCH 124 125
ENDBRANCH  89 124
ENDBRANCH  86  89
ENDBRANCH  83  86
ENDBRANCH  77  83
ENDBRANCH  75  77
BRANCH  75 142
ATOM    142  O   UNL     1     144.011 170.169 185.178  0.00  0.00    -0.391 OA
ATOM    143  H   UNL     1     144.025 170.243 184.209  0.00  0.00    +0.210 HD
ENDBRANCH  75 142
ENDBRANCH  69  75
ENDBRANCH  14  69
BRANCH  25 144
ATOM    144  O   UNL     1     154.803 165.973 188.271  0.00  0.00    -0.391 OA
ATOM    145  H   UNL     1     154.753 165.819 187.314  0.00  0.00    +0.210 HD
ENDBRANCH  25 144
BRANCH  23 146
ATOM    146  O   UNL     1     152.951 165.131 186.195  0.00  0.00    -0.460 OA
BRANCH 146 147
ATOM    147  C   UNL     1     153.440 165.077 184.930  0.00  0.00    +0.327 C 
ATOM    148  O   UNL     1     152.752 165.078 183.912  0.00  0.00    -0.249 OA
BRANCH 147 149
ATOM    149  C   UNL     1     154.976 165.094 184.915  0.00  0.00    +0.131 C 
ATOM    150  H   UNL     1     155.279 164.729 185.908  0.00  0.00    +0.060 HD
BRANCH 149 151
ATOM    151  C   UNL     1     155.449 166.567 184.837  0.00  0.00    +0.073 C 
ATOM    152  H   UNL     1     156.025 166.731 183.916  0.00  0.00    +0.058 HD
ATOM    153  H   UNL     1     154.570 167.224 184.806  0.00  0.00    +0.058 HD
BRANCH 151 154
ATOM    154  O   UNL     1     156.248 166.950 185.966  0.00  0.00    -0.381 OA
BRANCH 154 155
ATOM    155  C   UNL     1     157.631 166.738 185.712  0.00  0.00    +0.037 C 
ATOM    156  H   UNL     1     157.944 167.293 184.823  0.00  0.00    +0.052 HD
ATOM    157  H   UNL     1     158.228 167.038 186.578  0.00  0.00    +0.052 HD
ATOM    158  H   UNL     1     157.787 165.671 185.530  0.00  0.00    +0.052 HD
ENDBRANCH 154 155
ENDBRANCH 151 154
ENDBRANCH 149 151
BRANCH 149 159
ATOM    159  N   UNL     1     155.515 164.164 183.872  0.00  0.00    -0.294 NA
BRANCH 159 160
ATOM    160  C   UNL     1     156.488 163.225 184.440  0.00  0.00    -0.012 C 
ATOM    161  H   UNL     1     156.521 162.280 183.885  0.00  0.00    +0.039 HD
ATOM    162  H   UNL     1     156.241 162.997 185.484  0.00  0.00    +0.039 HD
ATOM    163  H   UNL     1     157.494 163.654 184.461  0.00  0.00    +0.039 HD
ENDBRANCH 159 160
BRANCH 159 164
ATOM    164  C   UNL     1     156.128 164.887 182.756  0.00  0.00    -0.012 C 
ATOM    165  H   UNL     1     156.267 164.221 181.895  0.00  0.00    +0.039 HD
ATOM    166  H   UNL     1     155.485 165.698 182.399  0.00  0.00    +0.039 HD
ATOM    167  H   UNL     1     157.104 165.307 183.024  0.00  0.00    +0.039 HD
ENDBRANCH 159 164
ENDBRANCH 149 159
ENDBRANCH 147 149
ENDBRANCH 146 147
ENDBRANCH  23 146
BRANCH   4 168
ATOM    168  O   UNL     1     151.250 168.646 192.221  0.00  0.00    -0.376 OA
BRANCH 168 169
ATOM    169  C   UNL     1     151.376 169.972 191.719  0.00  0.00    +0.037 C 
ATOM    170  H   UNL     1     150.836 170.025 190.771  0.00  0.00    +0.052 HD
ATOM    171  H   UNL     1     152.423 170.216 191.525  0.00  0.00    +0.052 HD
ATOM    172  H   UNL     1     150.937 170.696 192.408  0.00  0.00    +0.052 HD
ENDBRANCH 168 169
ENDBRANCH   4 168
BRANCH  10 173
ATOM    173  O   UNL     1     146.294 164.702 190.489  0.00  0.00    -0.376 OA
BRANCH 173 174
ATOM    174  C   UNL     1     146.052 164.178 189.191  0.00  0.00    +0.037 C 
ATOM    175  H   UNL     1     146.927 164.317 188.553  0.00  0.00    +0.052 HD
ATOM    176  H   UNL     1     145.214 164.725 188.751  0.00  0.00    +0.052 HD
ATOM    177  H   UNL     1     145.781 163.120 189.247  0.00  0.00    +0.052 HD
ENDBRANCH 173 174
ENDBRANCH  10 173
TORSDOF 45
ENDMDL
MODEL 5
REMARK VINA RESULT:      -5.5      5.584     15.361
REMARK  Name = Aplyronine A_conf3
REMARK  45 active torsions:
REMARK  status: ('A' for Active; 'I' for Inactive)
REMARK    1  A    between atoms: C_1  and  C_2
REMARK    2  A    between atoms: C_5  and  O_75
REMARK    3  A    between atoms: C_6  and  C_74
REMARK    4  A    between atoms: C_9  and  C_73
REMARK    5  A    between atoms: C_11  and  O_71
REMARK    6  A    between atoms: C_15  and  C_39
REMARK    7  A    between atoms: C_24  and  O_29
REMARK    8  A    between atoms: C_25  and  C_28
REMARK    9  A    between atoms: C_26  and  O_27
REMARK   10  A    between atoms: O_29  and  C_30
REMARK   11  A    between atoms: C_30  and  C_32
REMARK   12  A    between atoms: C_32  and  C_33
REMARK   13  A    between atoms: C_32  and  N_36
REMARK   14  A    between atoms: C_33  and  O_34
REMARK   15  A    between atoms: O_34  and  C_35
REMARK   16  A    between atoms: N_36  and  C_37
REMARK   17  A    between atoms: N_36  and  C_38
REMARK   18  A    between atoms: C_39  and  C_40
REMARK   19  A    between atoms: C_39  and  C_41
REMARK   20  A    between atoms: C_41  and  C_42
REMARK   21  A    between atoms: C_41  and  O_70
REMARK   22  A    between atoms: C_42  and  C_43
REMARK   23  A    between atoms: C_42  and  C_44
REMARK   24  A    between atoms: C_44  and  C_45
REMARK   25  A    between atoms: C_45  and  C_46
REMARK   26  A    between atoms: C_46  and  C_47
REMARK   27  A    between atoms: C_46  and  O_62
REMARK   28  A    between atoms: C_47  and  C_48
REMARK   29  A    between atoms: C_47  and  C_49
REMARK   30  A    between atoms: C_49  and  C_50
REMARK   31  A    between atoms: C_49  and  O_58
REMARK   32  A    between atoms: C_50  and  C_51
REMARK   33  A    between atoms: C_50  and  C_52
REMARK   34  A    between atoms: C_53  and  N_54
REMARK   35  A    between atoms: N_54  and  C_55
REMARK   36  A    between atoms: O_58  and  C_59
REMARK   37  A    between atoms: C_59  and  C_61
REMARK   38  A    between atoms: O_62  and  C_63
REMARK   39  A    between atoms: C_63  and  C_65
REMARK   40  A    between atoms: C_65  and  C_66
REMARK   41  A    between atoms: C_65  and  N_67
REMARK   42  A    between atoms: N_67  and  C_68
REMARK   43  A    between atoms: N_67  and  C_69
REMARK   44  A    between atoms: O_71  and  C_72
REMARK   45  A    between atoms: O_75  and  C_76
REMARK                            x       y       z     vdW  Elec       q    Type
REMARK                         _______ _______ _______ _____ _____    ______ ____
ROOT
ATOM      1  C   UNL     1     154.672 159.737 183.347  0.00  0.00    -0.017 C 
ATOM      2  C   UNL     1     155.274 161.159 183.401  0.00  0.00    -0.045 C 
ATOM      3  C   UNL     1     154.325 162.235 183.958  0.00  0.00    -0.022 C 
ATOM      4  C   UNL     1     154.082 163.452 183.029  0.00  0.00    +0.079 C 
ATOM      5  C   UNL     1     155.208 164.489 182.968  0.00  0.00    -0.048 C 
ATOM      6  C   UNL     1     154.922 165.793 183.182  0.00  0.00    -0.082 C 
ATOM      7  C   UNL     1     155.843 166.978 183.105  0.00  0.00    -0.032 C 
ATOM      8  C   UNL     1     156.524 167.375 184.432  0.00  0.00    -0.038 C 
ATOM      9  C   UNL     1     155.518 167.697 185.567  0.00  0.00    -0.020 C 
ATOM     10  C   UNL     1     155.077 166.459 186.365  0.00  0.00    +0.077 C 
ATOM     11  C   UNL     1     154.061 166.834 187.411  0.00  0.00    -0.059 C 
ATOM     12  C   UNL     1     152.732 166.682 187.283  0.00  0.00    -0.082 C 
ATOM     13  C   UNL     1     151.775 166.938 188.421  0.00  0.00    +0.003 C 
ATOM     14  C   UNL     1     150.740 165.812 188.664  0.00  0.00    +0.112 C 
ATOM     15  O   UNL     1     151.365 164.518 188.470  0.00  0.00    -0.458 OA
ATOM     16  C   UNL     1     152.275 164.078 189.367  0.00  0.00    +0.332 C 
ATOM     17  O   UNL     1     152.630 164.624 190.395  0.00  0.00    -0.246 OA
ATOM     18  C   UNL     1     152.770 162.799 188.828  0.00  0.00    +0.022 C 
ATOM     19  C   UNL     1     153.893 162.208 189.253  0.00  0.00    -0.055 C 
ATOM     20  C   UNL     1     154.318 160.978 188.633  0.00  0.00    -0.065 C 
ATOM     21  C   UNL     1     155.352 160.214 189.015  0.00  0.00    -0.081 C 
ATOM     22  C   UNL     1     155.727 158.864 188.432  0.00  0.00    +0.003 C 
ATOM     23  C   UNL     1     155.023 158.360 187.138  0.00  0.00    +0.111 C 
ATOM     24  C   UNL     1     155.466 159.141 185.852  0.00  0.00    +0.020 C 
ATOM     25  C   UNL     1     154.388 159.073 184.728  0.00  0.00    +0.064 C 
ATOM     26  H   UNL     1     153.690 159.827 182.856  0.00  0.00    +0.032 HD
ATOM     27  H   UNL     1     155.587 161.428 182.388  0.00  0.00    +0.027 HD
ATOM     28  H   UNL     1     156.194 161.154 183.994  0.00  0.00    +0.027 HD
ATOM     29  H   UNL     1     153.346 161.778 184.146  0.00  0.00    +0.029 HD
ATOM     30  H   UNL     1     154.691 162.582 184.932  0.00  0.00    +0.029 HD
ATOM     31  H   UNL     1     153.176 163.935 183.420  0.00  0.00    +0.064 HD
ATOM     32  H   UNL     1     153.888 166.065 183.408  0.00  0.00    +0.057 HD
ATOM     33  H   UNL     1     155.254 167.826 182.731  0.00  0.00    +0.031 HD
ATOM     34  H   UNL     1     156.607 166.813 182.335  0.00  0.00    +0.031 HD
ATOM     35  H   UNL     1     157.182 166.555 184.748  0.00  0.00    +0.030 HD
ATOM     36  H   UNL     1     154.646 168.218 185.151  0.00  0.00    +0.030 HD
ATOM     37  H   UNL     1     155.997 168.394 186.269  0.00  0.00    +0.030 HD
ATOM     38  H   UNL     1     154.661 165.694 185.706  0.00  0.00    +0.064 HD
ATOM     39  H   UNL     1     154.472 167.201 188.350  0.00  0.00    +0.059 HD
ATOM     40  H   UNL     1     152.306 166.324 186.348  0.00  0.00    +0.057 HD
ATOM     41  H   UNL     1     151.292 167.909 188.291  0.00  0.00    +0.034 HD
ATOM     42  H   UNL     1     152.363 167.039 189.344  0.00  0.00    +0.034 HD
ATOM     43  H   UNL     1     150.405 165.880 189.708  0.00  0.00    +0.074 HD
ATOM     44  H   UNL     1     152.170 162.362 188.034  0.00  0.00    +0.069 HD
ATOM     45  H   UNL     1     154.486 162.638 190.054  0.00  0.00    +0.062 HD
ATOM     46  H   UNL     1     153.684 160.656 187.811  0.00  0.00    +0.061 HD
ATOM     47  H   UNL     1     155.964 160.538 189.855  0.00  0.00    +0.057 HD
ATOM     48  H   UNL     1     156.812 158.854 188.285  0.00  0.00    +0.034 HD
ATOM     49  H   UNL     1     155.527 158.134 189.228  0.00  0.00    +0.034 HD
ATOM     50  H   UNL     1     155.288 157.303 186.990  0.00  0.00    +0.074 HD
ATOM     51  H   UNL     1     155.583 160.200 186.112  0.00  0.00    +0.036 HD
ATOM     52  H   UNL     1     153.507 159.594 185.121  0.00  0.00    +0.060 HD
ENDROOT
BRANCH   1  53
ATOM     53  C   UNL     1     155.485 158.863 182.377  0.00  0.00    -0.060 C 
ATOM     54  H   UNL     1     156.300 158.363 182.914  0.00  0.00    +0.023 HD
ATOM     55  H   UNL     1     155.955 159.463 181.592  0.00  0.00    +0.023 HD
ATOM     56  H   UNL     1     154.886 158.085 181.904  0.00  0.00    +0.023 HD
ENDBRANCH   1  53
BRANCH   5  57
ATOM     57  C   UNL     1     156.588 163.998 182.625  0.00  0.00    -0.041 C 
ATOM     58  H   UNL     1     157.347 164.636 183.087  0.00  0.00    +0.028 HD
ATOM     59  H   UNL     1     156.726 162.968 182.973  0.00  0.00    +0.028 HD
ATOM     60  H   UNL     1     156.796 164.001 181.553  0.00  0.00    +0.028 HD
ENDBRANCH   5  57
BRANCH  24  61
ATOM     61  C   UNL     1     156.843 158.625 185.412  0.00  0.00    -0.057 C 
ATOM     62  H   UNL     1     156.972 157.564 185.640  0.00  0.00    +0.023 HD
ATOM     63  H   UNL     1     156.991 158.751 184.336  0.00  0.00    +0.023 HD
ATOM     64  H   UNL     1     157.648 159.145 185.936  0.00  0.00    +0.023 HD
ENDBRANCH  24  61
BRANCH   8  65
ATOM     65  C   UNL     1     157.414 168.599 184.179  0.00  0.00    -0.062 C 
ATOM     66  H   UNL     1     158.468 168.370 184.370  0.00  0.00    +0.023 HD
ATOM     67  H   UNL     1     157.124 169.434 184.827  0.00  0.00    +0.023 HD
ATOM     68  H   UNL     1     157.322 168.938 183.142  0.00  0.00    +0.023 HD
ENDBRANCH   8  65
BRANCH  14  69
ATOM     69  C   UNL     1     149.460 165.795 187.759  0.00  0.00    +0.020 C 
ATOM     70  H   UNL     1     149.761 166.099 186.746  0.00  0.00    +0.036 HD
BRANCH  69  71
ATOM     71  C   UNL     1     148.978 164.331 187.671  0.00  0.00    -0.057 C 
ATOM     72  H   UNL     1     149.315 163.735 188.524  0.00  0.00    +0.023 HD
ATOM     73  H   UNL     1     149.340 163.854 186.752  0.00  0.00    +0.023 HD
ATOM     74  H   UNL     1     147.885 164.258 187.673  0.00  0.00    +0.023 HD
ENDBRANCH  69  71
BRANCH  69  75
ATOM     75  C   UNL     1     148.355 166.761 188.267  0.00  0.00    +0.064 C 
ATOM     76  H   UNL     1     147.406 166.208 188.274  0.00  0.00    +0.060 HD
BRANCH  75  77
ATOM     77  C   UNL     1     148.143 168.065 187.454  0.00  0.00    -0.017 C 
ATOM     78  H   UNL     1     148.609 168.882 188.020  0.00  0.00    +0.032 HD
BRANCH  77  79
ATOM     79  C   UNL     1     148.928 168.028 186.130  0.00  0.00    -0.060 C 
ATOM     80  H   UNL     1     150.004 167.911 186.274  0.00  0.00    +0.023 HD
ATOM     81  H   UNL     1     148.776 168.960 185.573  0.00  0.00    +0.023 HD
ATOM     82  H   UNL     1     148.578 167.206 185.496  0.00  0.00    +0.023 HD
ENDBRANCH  77  79
BRANCH  77  83
ATOM     83  C   UNL     1     146.668 168.486 187.226  0.00  0.00    -0.045 C 
ATOM     84  H   UNL     1     146.052 167.617 187.493  0.00  0.00    +0.027 HD
ATOM     85  H   UNL     1     146.497 168.658 186.157  0.00  0.00    +0.027 HD
BRANCH  83  86
ATOM     86  C   UNL     1     146.166 169.712 187.997  0.00  0.00    -0.015 C 
ATOM     87  H   UNL     1     145.301 170.147 187.487  0.00  0.00    +0.030 HD
ATOM     88  H   UNL     1     146.918 170.506 187.974  0.00  0.00    +0.030 HD
BRANCH  86  89
ATOM     89  C   UNL     1     145.838 169.411 189.476  0.00  0.00    +0.109 C 
ATOM     90  H   UNL     1     146.442 168.553 189.807  0.00  0.00    +0.074 HD
BRANCH  89  91
ATOM     91  C   UNL     1     144.355 169.083 189.833  0.00  0.00    +0.031 C 
ATOM     92  H   UNL     1     143.855 169.014 188.856  0.00  0.00    +0.037 HD
BRANCH  91  93
ATOM     93  C   UNL     1     143.710 170.253 190.583  0.00  0.00    -0.056 C 
ATOM     94  H   UNL     1     144.325 170.574 191.431  0.00  0.00    +0.023 HD
ATOM     95  H   UNL     1     142.717 169.995 190.963  0.00  0.00    +0.023 HD
ATOM     96  H   UNL     1     143.613 171.127 189.935  0.00  0.00    +0.023 HD
ENDBRANCH  91  93
BRANCH  91  97
ATOM     97  C   UNL     1     144.137 167.719 190.559  0.00  0.00    +0.115 C 
ATOM     98  H   UNL     1     143.297 167.210 190.067  0.00  0.00    +0.074 HD
BRANCH  97  99
ATOM     99  C   UNL     1     145.358 166.742 190.609  0.00  0.00    +0.013 C 
ATOM    100  H   UNL     1     146.050 167.061 189.815  0.00  0.00    +0.038 HD
BRANCH  99 101
ATOM    101  C   UNL     1     145.004 165.297 190.241  0.00  0.00    -0.056 C 
ATOM    102  H   UNL     1     145.078 165.146 189.158  0.00  0.00    +0.024 HD
ATOM    103  H   UNL     1     143.977 165.058 190.536  0.00  0.00    +0.024 HD
ATOM    104  H   UNL     1     145.676 164.574 190.715  0.00  0.00    +0.024 HD
ENDBRANCH  99 101
BRANCH  99 105
ATOM    105  C   UNL     1     146.131 166.788 191.913  0.00  0.00    -0.064 C 
ATOM    106  C   UNL     1     146.752 165.709 192.413  0.00  0.00    -0.005 C 
ATOM    107  H   UNL     1     146.125 167.731 192.445  0.00  0.00    +0.059 HD
ATOM    108  H   UNL     1     146.709 164.778 191.847  0.00  0.00    +0.078 HD
BRANCH 106 109
ATOM    109  N   UNL     1     147.476 165.620 193.592  0.00  0.00    -0.284 N 
ATOM    110  C   UNL     1     146.931 165.506 194.863  0.00  0.00    +0.206 C 
ATOM    111  O   UNL     1     147.554 165.450 195.918  0.00  0.00    -0.279 OA
ATOM    112  H   UNL     1     145.834 165.477 194.873  0.00  0.00    +0.126 HD
BRANCH 109 113
ATOM    113  C   UNL     1     148.931 165.683 193.479  0.00  0.00    +0.007 C 
ATOM    114  H   UNL     1     149.311 166.697 193.638  0.00  0.00    +0.043 HD
ATOM    115  H   UNL     1     149.381 165.021 194.227  0.00  0.00    +0.043 HD
ATOM    116  H   UNL     1     149.221 165.357 192.476  0.00  0.00    +0.043 HD
ENDBRANCH 109 113
ENDBRANCH 106 109
ENDBRANCH  99 105
ENDBRANCH  97  99
BRANCH  97 117
ATOM    117  O   UNL     1     143.763 168.002 191.934  0.00  0.00    -0.461 OA
BRANCH 117 118
ATOM    118  C   UNL     1     142.628 167.413 192.397  0.00  0.00    +0.304 C 
ATOM    119  O   UNL     1     141.536 167.436 191.845  0.00  0.00    -0.251 OA
BRANCH 118 120
ATOM    120  C   UNL     1     142.908 166.715 193.691  0.00  0.00    +0.033 C 
ATOM    121  H   UNL     1     142.365 165.766 193.716  0.00  0.00    +0.034 HD
ATOM    122  H   UNL     1     143.978 166.505 193.775  0.00  0.00    +0.034 HD
ATOM    123  H   UNL     1     142.571 167.335 194.526  0.00  0.00    +0.034 HD
ENDBRANCH 118 120
ENDBRANCH 117 118
ENDBRANCH  97 117
ENDBRANCH  91  97
ENDBRANCH  89  91
BRANCH  89 124
ATOM    124  O   UNL     1     146.245 170.551 190.277  0.00  0.00    -0.460 OA
BRANCH 124 125
ATOM    125  C   UNL     1     147.443 170.433 190.924  0.00  0.00    +0.324 C 
ATOM    126  O   UNL     1     148.273 169.560 190.697  0.00  0.00    -0.249 OA
BRANCH 125 127
ATOM    127  C   UNL     1     147.594 171.568 191.954  0.00  0.00    +0.105 C 
ATOM    128  H   UNL     1     147.426 171.156 192.957  0.00  0.00    +0.058 HD
BRANCH 127 129
ATOM    129  C   UNL     1     146.477 172.569 191.640  0.00  0.00    -0.039 C 
ATOM    130  H   UNL     1     146.260 173.207 192.504  0.00  0.00    +0.025 HD
ATOM    131  H   UNL     1     145.553 172.061 191.343  0.00  0.00    +0.025 HD
ATOM    132  H   UNL     1     146.765 173.230 190.814  0.00  0.00    +0.025 HD
ENDBRANCH 127 129
BRANCH 127 133
ATOM    133  N   UNL     1     148.961 172.163 191.888  0.00  0.00    -0.296 NA
BRANCH 133 134
ATOM    134  C   UNL     1     149.028 173.304 190.972  0.00  0.00    -0.012 C 
ATOM    135  H   UNL     1     148.850 174.241 191.512  0.00  0.00    +0.039 HD
ATOM    136  H   UNL     1     148.291 173.227 190.166  0.00  0.00    +0.039 HD
ATOM    137  H   UNL     1     150.025 173.401 190.532  0.00  0.00    +0.039 HD
ENDBRANCH 133 134
BRANCH 133 138
ATOM    138  C   UNL     1     149.420 172.584 193.218  0.00  0.00    -0.012 C 
ATOM    139  H   UNL     1     150.311 172.019 193.514  0.00  0.00    +0.039 HD
ATOM    140  H   UNL     1     149.665 173.652 193.247  0.00  0.00    +0.039 HD
ATOM    141  H   UNL     1     148.669 172.382 193.987  0.00  0.00    +0.039 HD
ENDBRANCH 133 138
ENDBRANCH 127 133
ENDBRANCH 125 127
ENDBRANCH 124 125
ENDBRANCH  89 124
ENDBRANCH  86  89
ENDBRANCH  83  86
ENDBRANCH  77  83
ENDBRANCH  75  77
BRANCH  75 142
ATOM    142  O   UNL     1     148.661 167.092 189.623  0.00  0.00    -0.391 OA
ATOM    143  H   UNL     1     147.845 167.399 190.051  0.00  0.00    +0.210 HD
ENDBRANCH  75 142
ENDBRANCH  69  75
ENDBRANCH  14  69
BRANCH  25 144
ATOM    144  O   UNL     1     153.964 157.720 184.526  0.00  0.00    -0.391 OA
ATOM    145  H   UNL     1     154.370 157.391 183.708  0.00  0.00    +0.210 HD
ENDBRANCH  25 144
BRANCH  23 146
ATOM    146  O   UNL     1     153.598 158.463 187.312  0.00  0.00    -0.460 OA
BRANCH 146 147
ATOM    147  C   UNL     1     152.925 157.382 187.783  0.00  0.00    +0.327 C 
ATOM    148  O   UNL     1     153.421 156.490 188.465  0.00  0.00    -0.249 OA
BRANCH 147 149
ATOM    149  C   UNL     1     151.433 157.444 187.422  0.00  0.00    +0.131 C 
ATOM    150  H   UNL     1     151.059 158.364 187.895  0.00  0.00    +0.060 HD
BRANCH 149 151
ATOM    151  C   UNL     1     150.709 156.272 188.133  0.00  0.00    +0.073 C 
ATOM    152  H   UNL     1     150.756 155.367 187.513  0.00  0.00    +0.058 HD
ATOM    153  H   UNL     1     151.220 156.058 189.080  0.00  0.00    +0.058 HD
BRANCH 151 154
ATOM    154  O   UNL     1     149.337 156.570 188.427  0.00  0.00    -0.381 OA
BRANCH 154 155
ATOM    155  C   UNL     1     149.227 157.697 189.286  0.00  0.00    +0.037 C 
ATOM    156  H   UNL     1     148.693 157.428 190.201  0.00  0.00    +0.052 HD
ATOM    157  H   UNL     1     150.219 158.092 189.527  0.00  0.00    +0.052 HD
ATOM    158  H   UNL     1     148.658 158.472 188.765  0.00  0.00    +0.052 HD
ENDBRANCH 154 155
ENDBRANCH 151 154
ENDBRANCH 149 151
BRANCH 149 159
ATOM    159  N   UNL     1     151.241 157.546 185.940  0.00  0.00    -0.294 NA
BRANCH 159 160
ATOM    160  C   UNL     1     150.265 158.586 185.596  0.00  0.00    -0.012 C 
ATOM    161  H   UNL     1     150.131 158.683 184.512  0.00  0.00    +0.039 HD
ATOM    162  H   UNL     1     150.583 159.560 185.987  0.00  0.00    +0.039 HD
ATOM    163  H   UNL     1     149.290 158.388 186.052  0.00  0.00    +0.039 HD
ENDBRANCH 159 160
BRANCH 159 164
ATOM    164  C   UNL     1     150.825 156.272 185.352  0.00  0.00    -0.012 C 
ATOM    165  H   UNL     1     149.895 155.918 185.816  0.00  0.00    +0.039 HD
ATOM    166  H   UNL     1     150.600 156.373 184.285  0.00  0.00    +0.039 HD
ATOM    167  H   UNL     1     151.585 155.493 185.476  0.00  0.00    +0.039 HD
ENDBRANCH 159 164
ENDBRANCH 149 159
ENDBRANCH 147 149
ENDBRANCH 146 147
ENDBRANCH  23 146
BRANCH   4 168
ATOM    168  O   UNL     1     153.777 162.958 181.714  0.00  0.00    -0.376 OA
BRANCH 168 169
ATOM    169  C   UNL     1     152.389 162.719 181.510  0.00  0.00    +0.037 C 
ATOM    170  H   UNL     1     152.235 161.638 181.478  0.00  0.00    +0.052 HD
ATOM    171  H   UNL     1     152.059 163.135 180.555  0.00  0.00    +0.052 HD
ATOM    172  H   UNL     1     151.795 163.129 182.329  0.00  0.00    +0.052 HD
ENDBRANCH 168 169
ENDBRANCH   4 168
BRANCH  10 173
ATOM    173  O   UNL     1     156.243 165.938 187.021  0.00  0.00    -0.376 OA
BRANCH 173 174
ATOM    174  C   UNL     1     156.083 165.812 188.427  0.00  0.00    +0.037 C 
ATOM    175  H   UNL     1     155.034 165.929 188.706  0.00  0.00    +0.052 HD
ATOM    176  H   UNL     1     156.659 166.606 188.911  0.00  0.00    +0.052 HD
ATOM    177  H   UNL     1     156.468 164.848 188.772  0.00  0.00    +0.052 HD
ENDBRANCH 173 174
ENDBRANCH  10 173
TORSDOF 45
ENDMDL
MODEL 6
REMARK VINA RESULT:      -5.4      2.755      4.862
REMARK  Name = Aplyronine A_conf3
REMARK  45 active torsions:
REMARK  status: ('A' for Active; 'I' for Inactive)
REMARK    1  A    between atoms: C_1  and  C_2
REMARK    2  A    between atoms: C_5  and  O_75
REMARK    3  A    between atoms: C_6  and  C_74
REMARK    4  A    between atoms: C_9  and  C_73
REMARK    5  A    between atoms: C_11  and  O_71
REMARK    6  A    between atoms: C_15  and  C_39
REMARK    7  A    between atoms: C_24  and  O_29
REMARK    8  A    between atoms: C_25  and  C_28
REMARK    9  A    between atoms: C_26  and  O_27
REMARK   10  A    between atoms: O_29  and  C_30
REMARK   11  A    between atoms: C_30  and  C_32
REMARK   12  A    between atoms: C_32  and  C_33
REMARK   13  A    between atoms: C_32  and  N_36
REMARK   14  A    between atoms: C_33  and  O_34
REMARK   15  A    between atoms: O_34  and  C_35
REMARK   16  A    between atoms: N_36  and  C_37
REMARK   17  A    between atoms: N_36  and  C_38
REMARK   18  A    between atoms: C_39  and  C_40
REMARK   19  A    between atoms: C_39  and  C_41
REMARK   20  A    between atoms: C_41  and  C_42
REMARK   21  A    between atoms: C_41  and  O_70
REMARK   22  A    between atoms: C_42  and  C_43
REMARK   23  A    between atoms: C_42  and  C_44
REMARK   24  A    between atoms: C_44  and  C_45
REMARK   25  A    between atoms: C_45  and  C_46
REMARK   26  A    between atoms: C_46  and  C_47
REMARK   27  A    between atoms: C_46  and  O_62
REMARK   28  A    between atoms: C_47  and  C_48
REMARK   29  A    between atoms: C_47  and  C_49
REMARK   30  A    between atoms: C_49  and  C_50
REMARK   31  A    between atoms: C_49  and  O_58
REMARK   32  A    between atoms: C_50  and  C_51
REMARK   33  A    between atoms: C_50  and  C_52
REMARK   34  A    between atoms: C_53  and  N_54
REMARK   35  A    between atoms: N_54  and  C_55
REMARK   36  A    between atoms: O_58  and  C_59
REMARK   37  A    between atoms: C_59  and  C_61
REMARK   38  A    between atoms: O_62  and  C_63
REMARK   39  A    between atoms: C_63  and  C_65
REMARK   40  A    between atoms: C_65  and  C_66
REMARK   41  A    between atoms: C_65  and  N_67
REMARK   42  A    between atoms: N_67  and  C_68
REMARK   43  A    between atoms: N_67  and  C_69
REMARK   44  A    between atoms: O_71  and  C_72
REMARK   45  A    between atoms: O_75  and  C_76
REMARK                            x       y       z     vdW  Elec       q    Type
REMARK                         _______ _______ _______ _____ _____    ______ ____
ROOT
ATOM      1  C   UNL     1     141.999 177.154 187.015  0.00  0.00    -0.017 C 
ATOM      2  C   UNL     1     142.292 175.946 186.098  0.00  0.00    -0.045 C 
ATOM      3  C   UNL     1     143.421 175.025 186.595  0.00  0.00    -0.022 C 
ATOM      4  C   UNL     1     144.583 174.799 185.594  0.00  0.00    +0.079 C 
ATOM      5  C   UNL     1     144.302 173.822 184.447  0.00  0.00    -0.048 C 
ATOM      6  C   UNL     1     145.161 172.803 184.219  0.00  0.00    -0.082 C 
ATOM      7  C   UNL     1     145.125 171.777 183.121  0.00  0.00    -0.032 C 
ATOM      8  C   UNL     1     144.373 170.472 183.459  0.00  0.00    -0.038 C 
ATOM      9  C   UNL     1     144.941 169.739 184.701  0.00  0.00    -0.020 C 
ATOM     10  C   UNL     1     144.337 170.226 186.029  0.00  0.00    +0.077 C 
ATOM     11  C   UNL     1     144.972 169.514 187.194  0.00  0.00    -0.059 C 
ATOM     12  C   UNL     1     145.954 170.017 187.962  0.00  0.00    -0.082 C 
ATOM     13  C   UNL     1     146.447 169.319 189.205  0.00  0.00    +0.003 C 
ATOM     14  C   UNL     1     146.547 170.221 190.459  0.00  0.00    +0.112 C 
ATOM     15  O   UNL     1     145.427 171.141 190.496  0.00  0.00    -0.458 OA
ATOM     16  C   UNL     1     144.187 170.669 190.753  0.00  0.00    +0.332 C 
ATOM     17  O   UNL     1     143.867 169.525 191.017  0.00  0.00    -0.246 OA
ATOM     18  C   UNL     1     143.291 171.831 190.623  0.00  0.00    +0.022 C 
ATOM     19  C   UNL     1     141.962 171.724 190.493  0.00  0.00    -0.055 C 
ATOM     20  C   UNL     1     141.174 172.919 190.330  0.00  0.00    -0.065 C 
ATOM     21  C   UNL     1     139.835 172.986 190.295  0.00  0.00    -0.081 C 
ATOM     22  C   UNL     1     139.006 174.256 190.238  0.00  0.00    +0.003 C 
ATOM     23  C   UNL     1     139.706 175.623 189.981  0.00  0.00    +0.111 C 
ATOM     24  C   UNL     1     140.223 175.784 188.509  0.00  0.00    +0.020 C 
ATOM     25  C   UNL     1     141.392 176.811 188.409  0.00  0.00    +0.064 C 
ATOM     26  H   UNL     1     142.966 177.635 187.226  0.00  0.00    +0.032 HD
ATOM     27  H   UNL     1     142.538 176.332 185.105  0.00  0.00    +0.027 HD
ATOM     28  H   UNL     1     141.384 175.351 185.959  0.00  0.00    +0.027 HD
ATOM     29  H   UNL     1     143.862 175.464 187.499  0.00  0.00    +0.029 HD
ATOM     30  H   UNL     1     143.002 174.059 186.900  0.00  0.00    +0.029 HD
ATOM     31  H   UNL     1     145.411 174.406 186.200  0.00  0.00    +0.064 HD
ATOM     32  H   UNL     1     146.028 172.700 184.875  0.00  0.00    +0.057 HD
ATOM     33  H   UNL     1     146.166 171.540 182.860  0.00  0.00    +0.031 HD
ATOM     34  H   UNL     1     144.706 172.216 182.207  0.00  0.00    +0.031 HD
ATOM     35  H   UNL     1     143.315 170.710 183.626  0.00  0.00    +0.030 HD
ATOM     36  H   UNL     1     146.034 169.833 184.717  0.00  0.00    +0.030 HD
ATOM     37  H   UNL     1     144.717 168.667 184.605  0.00  0.00    +0.030 HD
ATOM     38  H   UNL     1     144.461 171.304 186.145  0.00  0.00    +0.064 HD
ATOM     39  H   UNL     1     144.541 168.544 187.439  0.00  0.00    +0.059 HD
ATOM     40  H   UNL     1     146.399 170.981 187.725  0.00  0.00    +0.057 HD
ATOM     41  H   UNL     1     147.391 168.809 188.997  0.00  0.00    +0.034 HD
ATOM     42  H   UNL     1     145.741 168.512 189.446  0.00  0.00    +0.034 HD
ATOM     43  H   UNL     1     146.492 169.575 191.346  0.00  0.00    +0.074 HD
ATOM     44  H   UNL     1     143.780 172.801 190.620  0.00  0.00    +0.069 HD
ATOM     45  H   UNL     1     141.472 170.755 190.509  0.00  0.00    +0.062 HD
ATOM     46  H   UNL     1     141.761 173.832 190.279  0.00  0.00    +0.061 HD
ATOM     47  H   UNL     1     139.259 172.065 190.371  0.00  0.00    +0.057 HD
ATOM     48  H   UNL     1     138.216 174.106 189.494  0.00  0.00    +0.034 HD
ATOM     49  H   UNL     1     138.495 174.318 191.208  0.00  0.00    +0.034 HD
ATOM     50  H   UNL     1     138.977 176.425 190.164  0.00  0.00    +0.074 HD
ATOM     51  H   UNL     1     140.623 174.819 188.174  0.00  0.00    +0.036 HD
ATOM     52  H   UNL     1     142.221 176.383 188.985  0.00  0.00    +0.060 HD
ENDROOT
BRANCH   1  53
ATOM     53  C   UNL     1     141.222 178.227 186.232  0.00  0.00    -0.060 C 
ATOM     54  H   UNL     1     140.898 179.026 186.909  0.00  0.00    +0.023 HD
ATOM     55  H   UNL     1     140.314 177.817 185.781  0.00  0.00    +0.023 HD
ATOM     56  H   UNL     1     141.818 178.692 185.446  0.00  0.00    +0.023 HD
ENDBRANCH   1  53
BRANCH   5  57
ATOM     57  C   UNL     1     143.090 174.078 183.595  0.00  0.00    -0.041 C 
ATOM     58  H   UNL     1     142.606 173.136 183.323  0.00  0.00    +0.028 HD
ATOM     59  H   UNL     1     142.371 174.708 184.132  0.00  0.00    +0.028 HD
ATOM     60  H   UNL     1     143.318 174.588 182.656  0.00  0.00    +0.028 HD
ENDBRANCH   5  57
BRANCH  24  61
ATOM     61  C   UNL     1     139.031 176.121 187.602  0.00  0.00    -0.057 C 
ATOM     62  H   UNL     1     139.264 175.957 186.546  0.00  0.00    +0.023 HD
ATOM     63  H   UNL     1     138.160 175.508 187.845  0.00  0.00    +0.023 HD
ATOM     64  H   UNL     1     138.752 177.173 187.688  0.00  0.00    +0.023 HD
ENDBRANCH  24  61
BRANCH   8  65
ATOM     65  C   UNL     1     144.440 169.539 182.243  0.00  0.00    -0.062 C 
ATOM     66  H   UNL     1     143.553 169.645 181.611  0.00  0.00    +0.023 HD
ATOM     67  H   UNL     1     144.513 168.491 182.557  0.00  0.00    +0.023 HD
ATOM     68  H   UNL     1     145.322 169.761 181.631  0.00  0.00    +0.023 HD
ENDBRANCH   8  65
BRANCH  14  69
ATOM     69  C   UNL     1     147.825 171.116 190.609  0.00  0.00    +0.020 C 
ATOM     70  H   UNL     1     148.390 171.054 189.668  0.00  0.00    +0.036 HD
BRANCH  69  71
ATOM     71  C   UNL     1     147.348 172.577 190.759  0.00  0.00    -0.057 C 
ATOM     72  H   UNL     1     148.106 173.293 190.429  0.00  0.00    +0.023 HD
ATOM     73  H   UNL     1     147.092 172.800 191.800  0.00  0.00    +0.023 HD
ATOM     74  H   UNL     1     146.462 172.784 190.148  0.00  0.00    +0.023 HD
ENDBRANCH  69  71
BRANCH  69  75
ATOM     75  C   UNL     1     148.742 170.662 191.777  0.00  0.00    +0.064 C 
ATOM     76  H   UNL     1     149.252 171.552 192.168  0.00  0.00    +0.060 HD
BRANCH  75  77
ATOM     77  C   UNL     1     149.822 169.600 191.443  0.00  0.00    -0.017 C 
ATOM     78  H   UNL     1     149.903 169.549 190.350  0.00  0.00    +0.032 HD
BRANCH  77  79
ATOM     79  C   UNL     1     151.217 170.063 191.903  0.00  0.00    -0.060 C 
ATOM     80  H   UNL     1     152.025 169.443 191.509  0.00  0.00    +0.023 HD
ATOM     81  H   UNL     1     151.286 170.027 192.997  0.00  0.00    +0.023 HD
ATOM     82  H   UNL     1     151.401 171.098 191.596  0.00  0.00    +0.023 HD
ENDBRANCH  77  79
BRANCH  77  83
ATOM     83  C   UNL     1     149.519 168.155 191.920  0.00  0.00    -0.045 C 
ATOM     84  H   UNL     1     148.969 168.250 192.866  0.00  0.00    +0.027 HD
ATOM     85  H   UNL     1     150.457 167.648 192.169  0.00  0.00    +0.027 HD
BRANCH  83  86
ATOM     86  C   UNL     1     148.724 167.258 190.964  0.00  0.00    -0.015 C 
ATOM     87  H   UNL     1     149.409 166.659 190.357  0.00  0.00    +0.030 HD
ATOM     88  H   UNL     1     148.183 167.869 190.236  0.00  0.00    +0.030 HD
BRANCH  86  89
ATOM     89  C   UNL     1     147.697 166.357 191.685  0.00  0.00    +0.109 C 
ATOM     90  H   UNL     1     148.238 165.626 192.303  0.00  0.00    +0.074 HD
BRANCH  89  91
ATOM     91  C   UNL     1     146.700 165.549 190.798  0.00  0.00    +0.031 C 
ATOM     92  H   UNL     1     146.685 164.550 191.255  0.00  0.00    +0.037 HD
BRANCH  91  93
ATOM     93  C   UNL     1     147.254 165.383 189.379  0.00  0.00    -0.056 C 
ATOM     94  H   UNL     1     147.806 164.442 189.271  0.00  0.00    +0.023 HD
ATOM     95  H   UNL     1     147.924 166.204 189.105  0.00  0.00    +0.023 HD
ATOM     96  H   UNL     1     146.444 165.341 188.646  0.00  0.00    +0.023 HD
ENDBRANCH  91  93
BRANCH  91  97
ATOM     97  C   UNL     1     145.233 166.081 190.803  0.00  0.00    +0.115 C 
ATOM     98  H   UNL     1     145.274 167.169 190.954  0.00  0.00    +0.074 HD
BRANCH  97  99
ATOM     99  C   UNL     1     144.368 165.782 189.534  0.00  0.00    +0.013 C 
ATOM    100  H   UNL     1     145.060 165.757 188.680  0.00  0.00    +0.038 HD
BRANCH  99 101
ATOM    101  C   UNL     1     143.380 166.901 189.185  0.00  0.00    -0.056 C 
ATOM    102  H   UNL     1     143.906 167.856 189.065  0.00  0.00    +0.024 HD
ATOM    103  H   UNL     1     142.640 167.033 189.981  0.00  0.00    +0.024 HD
ATOM    104  H   UNL     1     142.849 166.705 188.248  0.00  0.00    +0.024 HD
ENDBRANCH  99 101
BRANCH  99 105
ATOM    105  C   UNL     1     143.663 164.440 189.571  0.00  0.00    -0.064 C 
ATOM    106  C   UNL     1     144.258 163.309 189.164  0.00  0.00    -0.005 C 
ATOM    107  H   UNL     1     142.634 164.444 189.909  0.00  0.00    +0.059 HD
ATOM    108  H   UNL     1     145.289 163.364 188.813  0.00  0.00    +0.078 HD
BRANCH 106 109
ATOM    109  N   UNL     1     143.720 162.031 189.139  0.00  0.00    -0.284 N 
ATOM    110  C   UNL     1     142.412 161.704 189.465  0.00  0.00    +0.206 C 
ATOM    111  O   UNL     1     141.925 160.577 189.472  0.00  0.00    -0.279 OA
ATOM    112  H   UNL     1     141.796 162.568 189.746  0.00  0.00    +0.126 HD
BRANCH 109 113
ATOM    113  C   UNL     1     144.621 160.943 188.767  0.00  0.00    +0.007 C 
ATOM    114  H   UNL     1     144.322 159.991 189.216  0.00  0.00    +0.043 HD
ATOM    115  H   UNL     1     144.622 160.829 187.678  0.00  0.00    +0.043 HD
ATOM    116  H   UNL     1     145.631 161.187 189.113  0.00  0.00    +0.043 HD
ENDBRANCH 109 113
ENDBRANCH 106 109
ENDBRANCH  99 105
ENDBRANCH  97  99
BRANCH  97 117
ATOM    117  O   UNL     1     144.547 165.484 191.935  0.00  0.00    -0.461 OA
BRANCH 117 118
ATOM    118  C   UNL     1     143.658 166.270 192.601  0.00  0.00    +0.304 C 
ATOM    119  O   UNL     1     143.904 167.359 193.101  0.00  0.00    -0.251 OA
BRANCH 118 120
ATOM    120  C   UNL     1     142.316 165.609 192.629  0.00  0.00    +0.033 C 
ATOM    121  H   UNL     1     142.446 164.524 192.582  0.00  0.00    +0.034 HD
ATOM    122  H   UNL     1     141.799 165.856 193.560  0.00  0.00    +0.034 HD
ATOM    123  H   UNL     1     141.728 165.930 191.765  0.00  0.00    +0.034 HD
ENDBRANCH 118 120
ENDBRANCH 117 118
ENDBRANCH  97 117
ENDBRANCH  91  97
ENDBRANCH  89  91
BRANCH  89 124
ATOM    124  O   UNL     1     146.918 167.184 192.589  0.00  0.00    -0.460 OA
BRANCH 124 125
ATOM    125  C   UNL     1     147.162 167.009 193.923  0.00  0.00    +0.324 C 
ATOM    126  O   UNL     1     147.218 167.918 194.743  0.00  0.00    -0.249 OA
BRANCH 125 127
ATOM    127  C   UNL     1     147.328 165.510 194.232  0.00  0.00    +0.105 C 
ATOM    128  H   UNL     1     147.437 164.967 193.284  0.00  0.00    +0.058 HD
BRANCH 127 129
ATOM    129  C   UNL     1     146.021 165.074 194.901  0.00  0.00    -0.039 C 
ATOM    130  H   UNL     1     145.361 164.564 194.191  0.00  0.00    +0.025 HD
ATOM    131  H   UNL     1     145.480 165.927 195.324  0.00  0.00    +0.025 HD
ATOM    132  H   UNL     1     146.217 164.373 195.721  0.00  0.00    +0.025 HD
ENDBRANCH 127 129
BRANCH 127 133
ATOM    133  N   UNL     1     148.536 165.276 195.076  0.00  0.00    -0.296 NA
BRANCH 133 134
ATOM    134  C   UNL     1     149.743 165.875 194.500  0.00  0.00    -0.012 C 
ATOM    135  H   UNL     1     149.658 165.937 193.409  0.00  0.00    +0.039 HD
ATOM    136  H   UNL     1     150.642 165.298 194.742  0.00  0.00    +0.039 HD
ATOM    137  H   UNL     1     149.878 166.903 194.846  0.00  0.00    +0.039 HD
ENDBRANCH 133 134
BRANCH 133 138
ATOM    138  C   UNL     1     148.341 165.797 196.435  0.00  0.00    -0.012 C 
ATOM    139  H   UNL     1     148.812 165.136 197.171  0.00  0.00    +0.039 HD
ATOM    140  H   UNL     1     148.766 166.800 196.553  0.00  0.00    +0.039 HD
ATOM    141  H   UNL     1     147.282 165.837 196.705  0.00  0.00    +0.039 HD
ENDBRANCH 133 138
ENDBRANCH 127 133
ENDBRANCH 125 127
ENDBRANCH 124 125
ENDBRANCH  89 124
ENDBRANCH  86  89
ENDBRANCH  83  86
ENDBRANCH  77  83
ENDBRANCH  75  77
BRANCH  75 142
ATOM    142  O   UNL     1     147.899 170.167 192.820  0.00  0.00    -0.391 OA
ATOM    143  H   UNL     1     147.433 170.922 193.216  0.00  0.00    +0.210 HD
ENDBRANCH  75 142
ENDBRANCH  69  75
ENDBRANCH  14  69
BRANCH  25 144
ATOM    144  O   UNL     1     141.048 178.023 189.089  0.00  0.00    -0.391 OA
ATOM    145  H   UNL     1     141.779 178.260 189.681  0.00  0.00    +0.210 HD
ENDBRANCH  25 144
BRANCH  23 146
ATOM    146  O   UNL     1     140.800 175.768 190.906  0.00  0.00    -0.460 OA
BRANCH 146 147
ATOM    147  C   UNL     1     140.606 176.513 192.024  0.00  0.00    +0.327 C 
ATOM    148  O   UNL     1     140.254 177.690 192.029  0.00  0.00    -0.249 OA
BRANCH 147 149
ATOM    149  C   UNL     1     140.804 175.682 193.300  0.00  0.00    +0.131 C 
ATOM    150  H   UNL     1     141.299 174.757 192.969  0.00  0.00    +0.060 HD
BRANCH 149 151
ATOM    151  C   UNL     1     139.411 175.257 193.829  0.00  0.00    +0.073 C 
ATOM    152  H   UNL     1     139.315 175.514 194.892  0.00  0.00    +0.058 HD
ATOM    153  H   UNL     1     138.636 175.807 193.279  0.00  0.00    +0.058 HD
BRANCH 151 154
ATOM    154  O   UNL     1     139.162 173.854 193.660  0.00  0.00    -0.381 OA
BRANCH 154 155
ATOM    155  C   UNL     1     140.303 173.083 194.012  0.00  0.00    +0.037 C 
ATOM    156  H   UNL     1     141.132 173.738 194.294  0.00  0.00    +0.052 HD
ATOM    157  H   UNL     1     140.064 172.398 194.831  0.00  0.00    +0.052 HD
ATOM    158  H   UNL     1     140.603 172.497 193.140  0.00  0.00    +0.052 HD
ENDBRANCH 154 155
ENDBRANCH 151 154
ENDBRANCH 149 151
BRANCH 149 159
ATOM    159  N   UNL     1     141.698 176.391 194.271  0.00  0.00    -0.294 NA
BRANCH 159 160
ATOM    160  C   UNL     1     143.066 175.863 194.224  0.00  0.00    -0.012 C 
ATOM    161  H   UNL     1     143.804 176.650 194.026  0.00  0.00    +0.039 HD
ATOM    162  H   UNL     1     143.161 175.103 193.440  0.00  0.00    +0.039 HD
ATOM    163  H   UNL     1     143.334 175.360 195.158  0.00  0.00    +0.039 HD
ENDBRANCH 159 160
BRANCH 159 164
ATOM    164  C   UNL     1     141.191 176.313 195.642  0.00  0.00    -0.012 C 
ATOM    165  H   UNL     1     140.643 177.227 195.903  0.00  0.00    +0.039 HD
ATOM    166  H   UNL     1     140.472 175.496 195.761  0.00  0.00    +0.039 HD
ATOM    167  H   UNL     1     141.996 176.178 196.372  0.00  0.00    +0.039 HD
ENDBRANCH 159 164
ENDBRANCH 149 159
ENDBRANCH 147 149
ENDBRANCH 146 147
ENDBRANCH  23 146
BRANCH   4 168
ATOM    168  O   UNL     1     144.989 176.078 185.081  0.00  0.00    -0.376 OA
BRANCH 168 169
ATOM    169  C   UNL     1     146.380 176.335 185.243  0.00  0.00    +0.037 C 
ATOM    170  H   UNL     1     146.544 176.659 186.273  0.00  0.00    +0.052 HD
ATOM    171  H   UNL     1     146.706 177.140 184.580  0.00  0.00    +0.052 HD
ATOM    172  H   UNL     1     146.968 175.433 185.067  0.00  0.00    +0.052 HD
ENDBRANCH 168 169
ENDBRANCH   4 168
BRANCH  10 173
ATOM    173  O   UNL     1     142.938 169.908 186.002  0.00  0.00    -0.376 OA
BRANCH 173 174
ATOM    174  C   UNL     1     142.118 170.953 186.506  0.00  0.00    +0.037 C 
ATOM    175  H   UNL     1     141.739 171.571 185.690  0.00  0.00    +0.052 HD
ATOM    176  H   UNL     1     142.727 171.583 187.161  0.00  0.00    +0.052 HD
ATOM    177  H   UNL     1     141.292 170.543 187.095  0.00  0.00    +0.052 HD
ENDBRANCH 173 174
ENDBRANCH  10 173
TORSDOF 45
ENDMDL
MODEL 7
REMARK VINA RESULT:      -5.4      3.557     13.486
REMARK  Name = Aplyronine A_conf3
REMARK  45 active torsions:
REMARK  status: ('A' for Active; 'I' for Inactive)
REMARK    1  A    between atoms: C_1  and  C_2
REMARK    2  A    between atoms: C_5  and  O_75
REMARK    3  A    between atoms: C_6  and  C_74
REMARK    4  A    between atoms: C_9  and  C_73
REMARK    5  A    between atoms: C_11  and  O_71
REMARK    6  A    between atoms: C_15  and  C_39
REMARK    7  A    between atoms: C_24  and  O_29
REMARK    8  A    between atoms: C_25  and  C_28
REMARK    9  A    between atoms: C_26  and  O_27
REMARK   10  A    between atoms: O_29  and  C_30
REMARK   11  A    between atoms: C_30  and  C_32
REMARK   12  A    between atoms: C_32  and  C_33
REMARK   13  A    between atoms: C_32  and  N_36
REMARK   14  A    between atoms: C_33  and  O_34
REMARK   15  A    between atoms: O_34  and  C_35
REMARK   16  A    between atoms: N_36  and  C_37
REMARK   17  A    between atoms: N_36  and  C_38
REMARK   18  A    between atoms: C_39  and  C_40
REMARK   19  A    between atoms: C_39  and  C_41
REMARK   20  A    between atoms: C_41  and  C_42
REMARK   21  A    between atoms: C_41  and  O_70
REMARK   22  A    between atoms: C_42  and  C_43
REMARK   23  A    between atoms: C_42  and  C_44
REMARK   24  A    between atoms: C_44  and  C_45
REMARK   25  A    between atoms: C_45  and  C_46
REMARK   26  A    between atoms: C_46  and  C_47
REMARK   27  A    between atoms: C_46  and  O_62
REMARK   28  A    between atoms: C_47  and  C_48
REMARK   29  A    between atoms: C_47  and  C_49
REMARK   30  A    between atoms: C_49  and  C_50
REMARK   31  A    between atoms: C_49  and  O_58
REMARK   32  A    between atoms: C_50  and  C_51
REMARK   33  A    between atoms: C_50  and  C_52
REMARK   34  A    between atoms: C_53  and  N_54
REMARK   35  A    between atoms: N_54  and  C_55
REMARK   36  A    between atoms: O_58  and  C_59
REMARK   37  A    between atoms: C_59  and  C_61
REMARK   38  A    between atoms: O_62  and  C_63
REMARK   39  A    between atoms: C_63  and  C_65
REMARK   40  A    between atoms: C_65  and  C_66
REMARK   41  A    between atoms: C_65  and  N_67
REMARK   42  A    between atoms: N_67  and  C_68
REMARK   43  A    between atoms: N_67  and  C_69
REMARK   44  A    between atoms: O_71  and  C_72
REMARK   45  A    between atoms: O_75  and  C_76
REMARK                            x       y       z     vdW  Elec       q    Type
REMARK                         _______ _______ _______ _____ _____    ______ ____
ROOT
ATOM      1  C   UNL     1     153.924 166.040 189.626  0.00  0.00    -0.017 C 
ATOM      2  C   UNL     1     152.670 165.967 190.525  0.00  0.00    -0.045 C 
ATOM      3  C   UNL     1     151.462 166.769 190.006  0.00  0.00    -0.022 C 
ATOM      4  C   UNL     1     150.887 167.817 190.993  0.00  0.00    +0.079 C 
ATOM      5  C   UNL     1     150.021 167.266 192.130  0.00  0.00    -0.048 C 
ATOM      6  C   UNL     1     148.790 167.785 192.338  0.00  0.00    -0.082 C 
ATOM      7  C   UNL     1     147.805 167.452 193.424  0.00  0.00    -0.032 C 
ATOM      8  C   UNL     1     146.787 166.344 193.078  0.00  0.00    -0.038 C 
ATOM      9  C   UNL     1     145.936 166.662 191.822  0.00  0.00    -0.020 C 
ATOM     10  C   UNL     1     146.599 166.223 190.505  0.00  0.00    +0.077 C 
ATOM     11  C   UNL     1     145.749 166.611 189.325  0.00  0.00    -0.059 C 
ATOM     12  C   UNL     1     145.949 167.693 188.554  0.00  0.00    -0.082 C 
ATOM     13  C   UNL     1     145.153 167.950 187.298  0.00  0.00    +0.003 C 
ATOM     14  C   UNL     1     146.003 168.306 186.054  0.00  0.00    +0.112 C 
ATOM     15  O   UNL     1     147.215 167.509 186.039  0.00  0.00    -0.458 OA
ATOM     16  C   UNL     1     147.135 166.184 185.789  0.00  0.00    +0.332 C 
ATOM     17  O   UNL     1     146.142 165.537 185.513  0.00  0.00    -0.246 OA
ATOM     18  C   UNL     1     148.509 165.674 185.941  0.00  0.00    +0.022 C 
ATOM     19  C   UNL     1     148.799 164.374 186.083  0.00  0.00    -0.055 C 
ATOM     20  C   UNL     1     150.172 163.976 186.268  0.00  0.00    -0.065 C 
ATOM     21  C   UNL     1     150.632 162.718 186.317  0.00  0.00    -0.081 C 
ATOM     22  C   UNL     1     152.090 162.304 186.397  0.00  0.00    +0.003 C 
ATOM     23  C   UNL     1     153.184 163.379 186.664  0.00  0.00    +0.111 C 
ATOM     24  C   UNL     1     153.163 163.930 188.133  0.00  0.00    +0.020 C 
ATOM     25  C   UNL     1     153.796 165.351 188.234  0.00  0.00    +0.064 C 
ATOM     26  H   UNL     1     154.099 167.106 189.411  0.00  0.00    +0.032 HD
ATOM     27  H   UNL     1     152.951 166.322 191.521  0.00  0.00    +0.027 HD
ATOM     28  H   UNL     1     152.369 164.924 190.666  0.00  0.00    +0.027 HD
ATOM     29  H   UNL     1     151.764 167.315 189.103  0.00  0.00    +0.029 HD
ATOM     30  H   UNL     1     150.668 166.080 189.694  0.00  0.00    +0.029 HD
ATOM     31  H   UNL     1     150.275 168.488 190.374  0.00  0.00    +0.064 HD
ATOM     32  H   UNL     1     148.444 168.578 191.672  0.00  0.00    +0.057 HD
ATOM     33  H   UNL     1     147.266 168.377 193.672  0.00  0.00    +0.031 HD
ATOM     34  H   UNL     1     148.336 167.187 194.347  0.00  0.00    +0.031 HD
ATOM     35  H   UNL     1     147.331 165.404 192.924  0.00  0.00    +0.030 HD
ATOM     36  H   UNL     1     145.702 167.734 191.795  0.00  0.00    +0.030 HD
ATOM     37  H   UNL     1     144.978 166.131 191.906  0.00  0.00    +0.030 HD
ATOM     38  H   UNL     1     147.595 166.660 190.401  0.00  0.00    +0.064 HD
ATOM     39  H   UNL     1     144.954 165.910 189.073  0.00  0.00    +0.059 HD
ATOM     40  H   UNL     1     146.733 168.406 188.798  0.00  0.00    +0.057 HD
ATOM     41  H   UNL     1     144.384 168.701 187.490  0.00  0.00    +0.034 HD
ATOM     42  H   UNL     1     144.596 167.034 187.055  0.00  0.00    +0.034 HD
ATOM     43  H   UNL     1     145.416 168.056 185.160  0.00  0.00    +0.074 HD
ATOM     44  H   UNL     1     149.290 166.428 185.951  0.00  0.00    +0.069 HD
ATOM     45  H   UNL     1     148.020 163.618 186.060  0.00  0.00    +0.062 HD
ATOM     46  H   UNL     1     150.869 164.809 186.325  0.00  0.00    +0.061 HD
ATOM     47  H   UNL     1     149.926 161.895 186.235  0.00  0.00    +0.057 HD
ATOM     48  H   UNL     1     152.171 161.509 187.147  0.00  0.00    +0.034 HD
ATOM     49  H   UNL     1     152.315 161.829 185.434  0.00  0.00    +0.034 HD
ATOM     50  H   UNL     1     154.169 162.920 186.498  0.00  0.00    +0.074 HD
ATOM     51  H   UNL     1     152.118 164.026 188.452  0.00  0.00    +0.036 HD
ATOM     52  H   UNL     1     153.150 166.012 187.644  0.00  0.00    +0.060 HD
ENDROOT
BRANCH   1  53
ATOM     53  C   UNL     1     155.167 165.622 190.429  0.00  0.00    -0.060 C 
ATOM     54  H   UNL     1     156.078 165.897 189.884  0.00  0.00    +0.023 HD
ATOM     55  H   UNL     1     155.208 164.538 190.571  0.00  0.00    +0.023 HD
ATOM     56  H   UNL     1     155.219 166.100 191.407  0.00  0.00    +0.023 HD
ENDBRANCH   1  53
BRANCH   5  57
ATOM     57  C   UNL     1     150.613 166.188 192.997  0.00  0.00    -0.041 C 
ATOM     58  H   UNL     1     151.657 166.008 192.726  0.00  0.00    +0.028 HD
ATOM     59  H   UNL     1     150.562 166.476 194.053  0.00  0.00    +0.028 HD
ATOM     60  H   UNL     1     150.102 165.227 192.906  0.00  0.00    +0.028 HD
ENDBRANCH   5  57
BRANCH  24  61
ATOM     61  C   UNL     1     153.826 162.897 189.055  0.00  0.00    -0.057 C 
ATOM     62  H   UNL     1     154.738 163.288 189.515  0.00  0.00    +0.023 HD
ATOM     63  H   UNL     1     153.154 162.594 189.863  0.00  0.00    +0.023 HD
ATOM     64  H   UNL     1     154.128 162.005 188.501  0.00  0.00    +0.023 HD
ENDBRANCH  24  61
BRANCH   8  65
ATOM     65  C   UNL     1     145.858 166.139 194.282  0.00  0.00    -0.062 C 
ATOM     66  H   UNL     1     144.807 166.155 193.979  0.00  0.00    +0.023 HD
ATOM     67  H   UNL     1     146.011 166.923 195.032  0.00  0.00    +0.023 HD
ATOM     68  H   UNL     1     146.058 165.176 194.765  0.00  0.00    +0.023 HD
ENDBRANCH   8  65
BRANCH  14  69
ATOM     69  C   UNL     1     146.481 169.791 185.903  0.00  0.00    +0.020 C 
ATOM     70  H   UNL     1     146.538 170.229 186.909  0.00  0.00    +0.036 HD
BRANCH  69  71
ATOM     71  C   UNL     1     147.918 169.757 185.338  0.00  0.00    -0.057 C 
ATOM     72  H   UNL     1     147.960 169.296 184.348  0.00  0.00    +0.023 HD
ATOM     73  H   UNL     1     148.588 169.203 186.006  0.00  0.00    +0.023 HD
ATOM     74  H   UNL     1     148.334 170.763 185.214  0.00  0.00    +0.023 HD
ENDBRANCH  69  71
BRANCH  69  75
ATOM     75  C   UNL     1     145.517 170.646 185.036  0.00  0.00    +0.064 C 
ATOM     76  H   UNL     1     146.129 171.289 184.390  0.00  0.00    +0.060 HD
BRANCH  75  77
ATOM     77  C   UNL     1     144.512 171.550 185.797  0.00  0.00    -0.017 C 
ATOM     78  H   UNL     1     144.276 172.399 185.144  0.00  0.00    +0.032 HD
BRANCH  77  79
ATOM     79  C   UNL     1     143.161 170.837 185.990  0.00  0.00    -0.060 C 
ATOM     80  H   UNL     1     142.618 170.688 185.055  0.00  0.00    +0.023 HD
ATOM     81  H   UNL     1     142.512 171.426 186.650  0.00  0.00    +0.023 HD
ATOM     82  H   UNL     1     143.304 169.858 186.460  0.00  0.00    +0.023 HD
ENDBRANCH  77  79
BRANCH  77  83
ATOM     83  C   UNL     1     145.025 172.159 187.128  0.00  0.00    -0.045 C 
ATOM     84  H   UNL     1     145.875 172.804 186.866  0.00  0.00    +0.027 HD
ATOM     85  H   UNL     1     145.436 171.364 187.760  0.00  0.00    +0.027 HD
BRANCH  83  86
ATOM     86  C   UNL     1     144.020 172.965 187.958  0.00  0.00    -0.015 C 
ATOM     87  H   UNL     1     143.085 173.084 187.401  0.00  0.00    +0.030 HD
ATOM     88  H   UNL     1     144.380 173.988 188.099  0.00  0.00    +0.030 HD
BRANCH  86  89
ATOM     89  C   UNL     1     143.756 172.358 189.354  0.00  0.00    +0.109 C 
ATOM     90  H   UNL     1     143.595 171.276 189.246  0.00  0.00    +0.074 HD
BRANCH  89  91
ATOM     91  C   UNL     1     142.544 172.916 190.164  0.00  0.00    +0.031 C 
ATOM     92  H   UNL     1     142.163 173.737 189.541  0.00  0.00    +0.037 HD
BRANCH  91  93
ATOM     93  C   UNL     1     143.018 173.538 191.482  0.00  0.00    -0.056 C 
ATOM     94  H   UNL     1     143.272 172.769 192.221  0.00  0.00    +0.023 HD
ATOM     95  H   UNL     1     142.259 174.193 191.920  0.00  0.00    +0.023 HD
ATOM     96  H   UNL     1     143.930 174.122 191.332  0.00  0.00    +0.023 HD
ENDBRANCH  91  93
BRANCH  91  97
ATOM     97  C   UNL     1     141.370 171.910 190.372  0.00  0.00    +0.115 C 
ATOM     98  H   UNL     1     140.479 172.333 189.888  0.00  0.00    +0.074 HD
BRANCH  97  99
ATOM     99  C   UNL     1     141.586 170.453 189.842  0.00  0.00    +0.013 C 
ATOM    100  H   UNL     1     142.562 170.443 189.335  0.00  0.00    +0.038 HD
BRANCH  99 101
ATOM    101  C   UNL     1     140.591 170.042 188.751  0.00  0.00    -0.056 C 
ATOM    102  H   UNL     1     139.561 170.227 189.079  0.00  0.00    +0.024 HD
ATOM    103  H   UNL     1     140.676 168.974 188.526  0.00  0.00    +0.024 HD
ATOM    104  H   UNL     1     140.740 170.603 187.823  0.00  0.00    +0.024 HD
ENDBRANCH  99 101
BRANCH  99 105
ATOM    105  C   UNL     1     141.645 169.403 190.934  0.00  0.00    -0.064 C 
ATOM    106  C   UNL     1     142.257 168.222 190.758  0.00  0.00    -0.005 C 
ATOM    107  H   UNL     1     141.131 169.638 191.859  0.00  0.00    +0.059 HD
ATOM    108  H   UNL     1     142.741 168.028 189.800  0.00  0.00    +0.078 HD
BRANCH 106 109
ATOM    109  N   UNL     1     142.369 167.182 191.668  0.00  0.00    -0.284 N 
ATOM    110  C   UNL     1     142.432 167.325 193.046  0.00  0.00    +0.206 C 
ATOM    111  O   UNL     1     142.556 166.420 193.866  0.00  0.00    -0.279 OA
ATOM    112  H   UNL     1     142.371 168.366 193.387  0.00  0.00    +0.126 HD
BRANCH 109 113
ATOM    113  C   UNL     1     142.460 165.832 191.119  0.00  0.00    +0.007 C 
ATOM    114  H   UNL     1     141.797 165.132 191.638  0.00  0.00    +0.043 HD
ATOM    115  H   UNL     1     142.183 165.853 190.059  0.00  0.00    +0.043 HD
ATOM    116  H   UNL     1     143.490 165.477 191.223  0.00  0.00    +0.043 HD
ENDBRANCH 109 113
ENDBRANCH 106 109
ENDBRANCH  99 105
ENDBRANCH  97  99
BRANCH  97 117
ATOM    117  O   UNL     1     141.116 171.809 191.798  0.00  0.00    -0.461 OA
BRANCH 117 118
ATOM    118  C   UNL     1     139.893 172.213 192.235  0.00  0.00    +0.304 C 
ATOM    119  O   UNL     1     138.830 172.018 191.662  0.00  0.00    -0.251 OA
BRANCH 118 120
ATOM    120  C   UNL     1     140.032 172.934 193.540  0.00  0.00    +0.033 C 
ATOM    121  H   UNL     1     141.076 173.230 193.680  0.00  0.00    +0.034 HD
ATOM    122  H   UNL     1     139.414 173.836 193.534  0.00  0.00    +0.034 HD
ATOM    123  H   UNL     1     139.741 172.273 194.361  0.00  0.00    +0.034 HD
ENDBRANCH 118 120
ENDBRANCH 117 118
ENDBRANCH  97 117
ENDBRANCH  91  97
ENDBRANCH  89  91
BRANCH  89 124
ATOM    124  O   UNL     1     144.948 172.533 190.162  0.00  0.00    -0.460 OA
BRANCH 124 125
ATOM    125  C   UNL     1     145.574 171.386 190.565  0.00  0.00    +0.324 C 
ATOM    126  O   UNL     1     145.024 170.297 190.676  0.00  0.00    -0.249 OA
BRANCH 125 127
ATOM    127  C   UNL     1     147.064 171.670 190.831  0.00  0.00    +0.105 C 
ATOM    128  H   UNL     1     147.370 172.532 190.225  0.00  0.00    +0.058 HD
BRANCH 127 129
ATOM    129  C   UNL     1     147.819 170.431 190.339  0.00  0.00    -0.039 C 
ATOM    130  H   UNL     1     148.544 170.084 191.083  0.00  0.00    +0.025 HD
ATOM    131  H   UNL     1     148.352 170.629 189.403  0.00  0.00    +0.025 HD
ATOM    132  H   UNL     1     147.128 169.601 190.151  0.00  0.00    +0.025 HD
ENDBRANCH 127 129
BRANCH 127 133
ATOM    133  N   UNL     1     147.295 171.973 192.274  0.00  0.00    -0.296 NA
BRANCH 133 134
ATOM    134  C   UNL     1     148.603 171.506 192.738  0.00  0.00    -0.012 C 
ATOM    135  H   UNL     1     148.629 171.460 193.833  0.00  0.00    +0.039 HD
ATOM    136  H   UNL     1     149.415 172.159 192.403  0.00  0.00    +0.039 HD
ATOM    137  H   UNL     1     148.805 170.487 192.394  0.00  0.00    +0.039 HD
ENDBRANCH 133 134
BRANCH 133 138
ATOM    138  C   UNL     1     147.177 173.414 192.536  0.00  0.00    -0.012 C 
ATOM    139  H   UNL     1     146.855 173.944 191.633  0.00  0.00    +0.039 HD
ATOM    140  H   UNL     1     146.457 173.626 193.334  0.00  0.00    +0.039 HD
ATOM    141  H   UNL     1     148.140 173.854 192.814  0.00  0.00    +0.039 HD
ENDBRANCH 133 138
ENDBRANCH 127 133
ENDBRANCH 125 127
ENDBRANCH 124 125
ENDBRANCH  89 124
ENDBRANCH  86  89
ENDBRANCH  83  86
ENDBRANCH  77  83
ENDBRANCH  75  77
BRANCH  75 142
ATOM    142  O   UNL     1     144.797 169.753 184.183  0.00  0.00    -0.391 OA
ATOM    143  H   UNL     1     144.232 170.283 183.598  0.00  0.00    +0.210 HD
ENDBRANCH  75 142
ENDBRANCH  69  75
ENDBRANCH  14  69
BRANCH  25 144
ATOM    144  O   UNL     1     155.065 165.378 187.572  0.00  0.00    -0.391 OA
ATOM    145  H   UNL     1     155.580 164.610 187.866  0.00  0.00    +0.210 HD
ENDBRANCH  25 144
BRANCH  23 146
ATOM    146  O   UNL     1     153.011 164.462 185.730  0.00  0.00    -0.460 OA
BRANCH 146 147
ATOM    147  C   UNL     1     153.889 164.573 184.701  0.00  0.00    +0.327 C 
ATOM    148  O   UNL     1     155.078 164.270 184.759  0.00  0.00    -0.249 OA
BRANCH 147 149
ATOM    149  C   UNL     1     153.198 165.054 183.417  0.00  0.00    +0.131 C 
ATOM    150  H   UNL     1     152.734 166.015 183.680  0.00  0.00    +0.060 HD
BRANCH 149 151
ATOM    151  C   UNL     1     152.030 164.087 183.097  0.00  0.00    +0.073 C 
ATOM    152  H   UNL     1     152.234 163.542 182.166  0.00  0.00    +0.058 HD
ATOM    153  H   UNL     1     151.944 163.350 183.906  0.00  0.00    +0.058 HD
BRANCH 151 154
ATOM    154  O   UNL     1     150.771 164.764 182.980  0.00  0.00    -0.381 OA
BRANCH 154 155
ATOM    155  C   UNL     1     149.759 163.889 182.498  0.00  0.00    +0.037 C 
ATOM    156  H   UNL     1     149.570 163.092 183.221  0.00  0.00    +0.052 HD
ATOM    157  H   UNL     1     148.839 164.444 182.293  0.00  0.00    +0.052 HD
ATOM    158  H   UNL     1     150.112 163.438 181.566  0.00  0.00    +0.052 HD
ENDBRANCH 154 155
ENDBRANCH 151 154
ENDBRANCH 149 151
BRANCH 149 159
ATOM    159  N   UNL     1     154.195 165.281 182.321  0.00  0.00    -0.294 NA
BRANCH 159 160
ATOM    160  C   UNL     1     154.647 166.676 182.287  0.00  0.00    -0.012 C 
ATOM    161  H   UNL     1     154.800 167.083 183.294  0.00  0.00    +0.039 HD
ATOM    162  H   UNL     1     153.913 167.308 181.773  0.00  0.00    +0.039 HD
ATOM    163  H   UNL     1     155.577 166.783 181.722  0.00  0.00    +0.039 HD
ENDBRANCH 159 160
BRANCH 159 164
ATOM    164  C   UNL     1     153.663 164.908 181.009  0.00  0.00    -0.012 C 
ATOM    165  H   UNL     1     152.911 165.635 180.677  0.00  0.00    +0.039 HD
ATOM    166  H   UNL     1     154.441 164.918 180.240  0.00  0.00    +0.039 HD
ATOM    167  H   UNL     1     153.196 163.916 181.021  0.00  0.00    +0.039 HD
ENDBRANCH 159 164
ENDBRANCH 149 159
ENDBRANCH 147 149
ENDBRANCH 146 147
ENDBRANCH  23 146
BRANCH   4 168
ATOM    168  O   UNL     1     151.981 168.587 191.518  0.00  0.00    -0.376 OA
BRANCH 168 169
ATOM    169  C   UNL     1     151.662 169.962 191.706  0.00  0.00    +0.037 C 
ATOM    170  H   UNL     1     150.661 170.018 192.138  0.00  0.00    +0.052 HD
ATOM    171  H   UNL     1     151.649 170.492 190.751  0.00  0.00    +0.052 HD
ATOM    172  H   UNL     1     152.363 170.436 192.396  0.00  0.00    +0.052 HD
ENDBRANCH 168 169
ENDBRANCH   4 168
BRANCH  10 173
ATOM    173  O   UNL     1     146.711 164.792 190.542  0.00  0.00    -0.376 OA
BRANCH 173 174
ATOM    174  C   UNL     1     145.998 164.149 189.496  0.00  0.00    +0.037 C 
ATOM    175  H   UNL     1     144.921 164.239 189.655  0.00  0.00    +0.052 HD
ATOM    176  H   UNL     1     146.259 163.087 189.504  0.00  0.00    +0.052 HD
ATOM    177  H   UNL     1     146.279 164.565 188.525  0.00  0.00    +0.052 HD
ENDBRANCH 173 174
ENDBRANCH  10 173
TORSDOF 45
ENDMDL
MODEL 8
REMARK VINA RESULT:      -5.4      1.594      4.657
REMARK  Name = Aplyronine A_conf3
REMARK  45 active torsions:
REMARK  status: ('A' for Active; 'I' for Inactive)
REMARK    1  A    between atoms: C_1  and  C_2
REMARK    2  A    between atoms: C_5  and  O_75
REMARK    3  A    between atoms: C_6  and  C_74
REMARK    4  A    between atoms: C_9  and  C_73
REMARK    5  A    between atoms: C_11  and  O_71
REMARK    6  A    between atoms: C_15  and  C_39
REMARK    7  A    between atoms: C_24  and  O_29
REMARK    8  A    between atoms: C_25  and  C_28
REMARK    9  A    between atoms: C_26  and  O_27
REMARK   10  A    between atoms: O_29  and  C_30
REMARK   11  A    between atoms: C_30  and  C_32
REMARK   12  A    between atoms: C_32  and  C_33
REMARK   13  A    between atoms: C_32  and  N_36
REMARK   14  A    between atoms: C_33  and  O_34
REMARK   15  A    between atoms: O_34  and  C_35
REMARK   16  A    between atoms: N_36  and  C_37
REMARK   17  A    between atoms: N_36  and  C_38
REMARK   18  A    between atoms: C_39  and  C_40
REMARK   19  A    between atoms: C_39  and  C_41
REMARK   20  A    between atoms: C_41  and  C_42
REMARK   21  A    between atoms: C_41  and  O_70
REMARK   22  A    between atoms: C_42  and  C_43
REMARK   23  A    between atoms: C_42  and  C_44
REMARK   24  A    between atoms: C_44  and  C_45
REMARK   25  A    between atoms: C_45  and  C_46
REMARK   26  A    between atoms: C_46  and  C_47
REMARK   27  A    between atoms: C_46  and  O_62
REMARK   28  A    between atoms: C_47  and  C_48
REMARK   29  A    between atoms: C_47  and  C_49
REMARK   30  A    between atoms: C_49  and  C_50
REMARK   31  A    between atoms: C_49  and  O_58
REMARK   32  A    between atoms: C_50  and  C_51
REMARK   33  A    between atoms: C_50  and  C_52
REMARK   34  A    between atoms: C_53  and  N_54
REMARK   35  A    between atoms: N_54  and  C_55
REMARK   36  A    between atoms: O_58  and  C_59
REMARK   37  A    between atoms: C_59  and  C_61
REMARK   38  A    between atoms: O_62  and  C_63
REMARK   39  A    between atoms: C_63  and  C_65
REMARK   40  A    between atoms: C_65  and  C_66
REMARK   41  A    between atoms: C_65  and  N_67
REMARK   42  A    between atoms: N_67  and  C_68
REMARK   43  A    between atoms: N_67  and  C_69
REMARK   44  A    between atoms: O_71  and  C_72
REMARK   45  A    between atoms: O_75  and  C_76
REMARK                            x       y       z     vdW  Elec       q    Type
REMARK                         _______ _______ _______ _____ _____    ______ ____
ROOT
ATOM      1  C   UNL     1     141.179 177.944 187.162  0.00  0.00    -0.017 C 
ATOM      2  C   UNL     1     141.815 176.863 186.260  0.00  0.00    -0.045 C 
ATOM      3  C   UNL     1     143.012 176.127 186.890  0.00  0.00    -0.022 C 
ATOM      4  C   UNL     1     144.325 176.169 186.067  0.00  0.00    +0.079 C 
ATOM      5  C   UNL     1     144.393 175.228 184.860  0.00  0.00    -0.048 C 
ATOM      6  C   UNL     1     145.447 174.392 184.729  0.00  0.00    -0.082 C 
ATOM      7  C   UNL     1     145.756 173.442 183.605  0.00  0.00    -0.032 C 
ATOM      8  C   UNL     1     145.214 172.008 183.783  0.00  0.00    -0.038 C 
ATOM      9  C   UNL     1     145.725 171.314 185.071  0.00  0.00    -0.020 C 
ATOM     10  C   UNL     1     144.861 171.606 186.309  0.00  0.00    +0.077 C 
ATOM     11  C   UNL     1     145.444 170.949 187.532  0.00  0.00    -0.059 C 
ATOM     12  C   UNL     1     146.198 171.571 188.455  0.00  0.00    -0.082 C 
ATOM     13  C   UNL     1     146.630 170.898 189.734  0.00  0.00    +0.003 C 
ATOM     14  C   UNL     1     146.385 171.726 191.018  0.00  0.00    +0.112 C 
ATOM     15  O   UNL     1     145.122 172.432 190.917  0.00  0.00    -0.458 OA
ATOM     16  C   UNL     1     143.966 171.734 190.969  0.00  0.00    +0.332 C 
ATOM     17  O   UNL     1     143.826 170.538 191.145  0.00  0.00    -0.246 OA
ATOM     18  C   UNL     1     142.900 172.726 190.745  0.00  0.00    +0.022 C 
ATOM     19  C   UNL     1     141.645 172.394 190.414  0.00  0.00    -0.055 C 
ATOM     20  C   UNL     1     140.682 173.440 190.174  0.00  0.00    -0.065 C 
ATOM     21  C   UNL     1     139.373 173.272 189.941  0.00  0.00    -0.081 C 
ATOM     22  C   UNL     1     138.342 174.378 189.802  0.00  0.00    +0.003 C 
ATOM     23  C   UNL     1     138.810 175.859 189.698  0.00  0.00    +0.111 C 
ATOM     24  C   UNL     1     139.492 176.196 188.327  0.00  0.00    +0.020 C 
ATOM     25  C   UNL     1     140.455 177.417 188.437  0.00  0.00    +0.064 C 
ATOM     26  H   UNL     1     142.003 178.574 187.532  0.00  0.00    +0.032 HD
ATOM     27  H   UNL     1     142.125 177.345 185.328  0.00  0.00    +0.027 HD
ATOM     28  H   UNL     1     141.060 176.127 185.967  0.00  0.00    +0.027 HD
ATOM     29  H   UNL     1     143.233 176.582 187.863  0.00  0.00    +0.029 HD
ATOM     30  H   UNL     1     142.738 175.086 187.096  0.00  0.00    +0.029 HD
ATOM     31  H   UNL     1     145.117 175.892 186.777  0.00  0.00    +0.064 HD
ATOM     32  H   UNL     1     146.216 174.404 185.504  0.00  0.00    +0.057 HD
ATOM     33  H   UNL     1     146.848 173.408 183.495  0.00  0.00    +0.031 HD
ATOM     34  H   UNL     1     145.396 173.855 182.653  0.00  0.00    +0.031 HD
ATOM     35  H   UNL     1     144.117 172.046 183.797  0.00  0.00    +0.030 HD
ATOM     36  H   UNL     1     146.770 171.597 185.254  0.00  0.00    +0.030 HD
ATOM     37  H   UNL     1     145.717 170.226 184.908  0.00  0.00    +0.030 HD
ATOM     38  H   UNL     1     144.768 172.681 186.478  0.00  0.00    +0.064 HD
ATOM     39  H   UNL     1     145.168 169.906 187.677  0.00  0.00    +0.059 HD
ATOM     40  H   UNL     1     146.489 172.610 188.319  0.00  0.00    +0.057 HD
ATOM     41  H   UNL     1     147.671 170.576 189.653  0.00  0.00    +0.034 HD
ATOM     42  H   UNL     1     146.056 169.966 189.839  0.00  0.00    +0.034 HD
ATOM     43  H   UNL     1     146.324 171.030 191.865  0.00  0.00    +0.074 HD
ATOM     44  H   UNL     1     143.198 173.765 190.847  0.00  0.00    +0.069 HD
ATOM     45  H   UNL     1     141.343 171.356 190.324  0.00  0.00    +0.062 HD
ATOM     46  H   UNL     1     141.095 174.443 190.241  0.00  0.00    +0.061 HD
ATOM     47  H   UNL     1     138.970 172.262 189.899  0.00  0.00    +0.057 HD
ATOM     48  H   UNL     1     137.706 174.135 188.944  0.00  0.00    +0.034 HD
ATOM     49  H   UNL     1     137.697 174.291 190.686  0.00  0.00    +0.034 HD
ATOM     50  H   UNL     1     137.928 176.508 189.796  0.00  0.00    +0.074 HD
ATOM     51  H   UNL     1     140.104 175.338 188.024  0.00  0.00    +0.036 HD
ATOM     52  H   UNL     1     141.258 177.108 189.117  0.00  0.00    +0.060 HD
ENDROOT
BRANCH   1  53
ATOM     53  C   UNL     1     140.339 178.908 186.307  0.00  0.00    -0.060 C 
ATOM     54  H   UNL     1     139.271 178.755 186.506  0.00  0.00    +0.023 HD
ATOM     55  H   UNL     1     140.482 178.726 185.238  0.00  0.00    +0.023 HD
ATOM     56  H   UNL     1     140.558 179.956 186.512  0.00  0.00    +0.023 HD
ENDBRANCH   1  53
BRANCH   5  57
ATOM     57  C   UNL     1     143.287 175.317 183.845  0.00  0.00    -0.041 C 
ATOM     58  H   UNL     1     143.144 174.354 183.348  0.00  0.00    +0.028 HD
ATOM     59  H   UNL     1     142.349 175.615 184.326  0.00  0.00    +0.028 HD
ATOM     60  H   UNL     1     143.481 176.045 183.053  0.00  0.00    +0.028 HD
ENDBRANCH   5  57
BRANCH  24  61
ATOM     61  C   UNL     1     138.398 176.372 187.263  0.00  0.00    -0.057 C 
ATOM     62  H   UNL     1     138.181 177.427 187.074  0.00  0.00    +0.023 HD
ATOM     63  H   UNL     1     138.692 175.921 186.312  0.00  0.00    +0.023 HD
ATOM     64  H   UNL     1     137.456 175.923 187.584  0.00  0.00    +0.023 HD
ENDBRANCH  24  61
BRANCH   8  65
ATOM     65  C   UNL     1     145.622 171.175 182.560  0.00  0.00    -0.062 C 
ATOM     66  H   UNL     1     145.805 171.811 181.689  0.00  0.00    +0.023 HD
ATOM     67  H   UNL     1     144.840 170.454 182.299  0.00  0.00    +0.023 HD
ATOM     68  H   UNL     1     146.538 170.608 182.765  0.00  0.00    +0.023 HD
ENDBRANCH   8  65
BRANCH  14  69
ATOM     69  C   UNL     1     147.444 172.822 191.387  0.00  0.00    +0.020 C 
ATOM     70  H   UNL     1     147.170 173.745 190.857  0.00  0.00    +0.036 HD
BRANCH  69  71
ATOM     71  C   UNL     1     147.305 173.107 192.898  0.00  0.00    -0.057 C 
ATOM     72  H   UNL     1     147.645 172.266 193.508  0.00  0.00    +0.023 HD
ATOM     73  H   UNL     1     146.263 173.325 193.161  0.00  0.00    +0.023 HD
ATOM     74  H   UNL     1     147.911 173.964 193.212  0.00  0.00    +0.023 HD
ENDBRANCH  69  71
BRANCH  69  75
ATOM     75  C   UNL     1     148.888 172.420 190.983  0.00  0.00    +0.064 C 
ATOM     76  H   UNL     1     148.818 171.730 190.132  0.00  0.00    +0.060 HD
BRANCH  75  77
ATOM     77  C   UNL     1     149.754 171.743 192.079  0.00  0.00    -0.017 C 
ATOM     78  H   UNL     1     150.805 171.862 191.785  0.00  0.00    +0.032 HD
BRANCH  77  79
ATOM     79  C   UNL     1     149.649 172.500 193.416  0.00  0.00    -0.060 C 
ATOM     80  H   UNL     1     149.461 171.841 194.266  0.00  0.00    +0.023 HD
ATOM     81  H   UNL     1     148.824 173.222 193.378  0.00  0.00    +0.023 HD
ATOM     82  H   UNL     1     150.568 173.062 193.616  0.00  0.00    +0.023 HD
ENDBRANCH  77  79
BRANCH  77  83
ATOM     83  C   UNL     1     149.530 170.220 192.271  0.00  0.00    -0.045 C 
ATOM     84  H   UNL     1     148.910 169.889 191.428  0.00  0.00    +0.027 HD
ATOM     85  H   UNL     1     148.929 170.049 193.171  0.00  0.00    +0.027 HD
BRANCH  83  86
ATOM     86  C   UNL     1     150.781 169.338 192.352  0.00  0.00    -0.015 C 
ATOM     87  H   UNL     1     151.216 169.396 193.355  0.00  0.00    +0.030 HD
ATOM     88  H   UNL     1     151.564 169.731 191.697  0.00  0.00    +0.030 HD
BRANCH  86  89
ATOM     89  C   UNL     1     150.519 167.869 191.951  0.00  0.00    +0.109 C 
ATOM     90  H   UNL     1     149.979 167.853 190.993  0.00  0.00    +0.074 HD
BRANCH  89  91
ATOM     91  C   UNL     1     149.701 166.986 192.945  0.00  0.00    +0.031 C 
ATOM     92  H   UNL     1     149.483 167.662 193.784  0.00  0.00    +0.037 HD
BRANCH  91  93
ATOM     93  C   UNL     1     150.571 165.852 193.499  0.00  0.00    -0.056 C 
ATOM     94  H   UNL     1     150.026 164.902 193.520  0.00  0.00    +0.023 HD
ATOM     95  H   UNL     1     150.921 166.066 194.513  0.00  0.00    +0.023 HD
ATOM     96  H   UNL     1     151.443 165.684 192.863  0.00  0.00    +0.023 HD
ENDBRANCH  91  93
BRANCH  91  97
ATOM     97  C   UNL     1     148.333 166.472 192.398  0.00  0.00    +0.115 C 
ATOM     98  H   UNL     1     148.460 165.415 192.126  0.00  0.00    +0.074 HD
BRANCH  97  99
ATOM     99  C   UNL     1     147.098 166.602 193.350  0.00  0.00    +0.013 C 
ATOM    100  H   UNL     1     147.215 167.553 193.890  0.00  0.00    +0.038 HD
BRANCH  99 101
ATOM    101  C   UNL     1     147.062 165.542 194.458  0.00  0.00    -0.056 C 
ATOM    102  H   UNL     1     147.573 165.907 195.357  0.00  0.00    +0.024 HD
ATOM    103  H   UNL     1     147.571 164.626 194.141  0.00  0.00    +0.024 HD
ATOM    104  H   UNL     1     146.039 165.285 194.750  0.00  0.00    +0.024 HD
ENDBRANCH  99 101
BRANCH  99 105
ATOM    105  C   UNL     1     145.767 166.664 192.627  0.00  0.00    -0.064 C 
ATOM    106  C   UNL     1     144.668 166.059 193.101  0.00  0.00    -0.005 C 
ATOM    107  H   UNL     1     145.755 167.192 191.681  0.00  0.00    +0.059 HD
ATOM    108  H   UNL     1     144.739 165.523 194.047  0.00  0.00    +0.078 HD
BRANCH 106 109
ATOM    109  N   UNL     1     143.403 166.034 192.532  0.00  0.00    -0.284 N 
ATOM    110  C   UNL     1     142.242 166.497 193.134  0.00  0.00    +0.206 C 
ATOM    111  O   UNL     1     141.112 166.461 192.657  0.00  0.00    -0.279 OA
ATOM    112  H   UNL     1     142.400 166.918 194.135  0.00  0.00    +0.126 HD
BRANCH 109 113
ATOM    113  C   UNL     1     143.290 165.440 191.202  0.00  0.00    +0.007 C 
ATOM    114  H   UNL     1     144.181 165.623 190.594  0.00  0.00    +0.043 HD
ATOM    115  H   UNL     1     143.152 164.357 191.300  0.00  0.00    +0.043 HD
ATOM    116  H   UNL     1     142.426 165.877 190.693  0.00  0.00    +0.043 HD
ENDBRANCH 109 113
ENDBRANCH 106 109
ENDBRANCH  99 105
ENDBRANCH  97  99
BRANCH  97 117
ATOM    117  O   UNL     1     148.023 167.224 191.195  0.00  0.00    -0.461 OA
BRANCH 117 118
ATOM    118  C   UNL     1     147.989 166.529 190.027  0.00  0.00    +0.304 C 
ATOM    119  O   UNL     1     147.479 165.429 189.865  0.00  0.00    -0.251 OA
BRANCH 118 120
ATOM    120  C   UNL     1     148.665 167.315 188.948  0.00  0.00    +0.033 C 
ATOM    121  H   UNL     1     149.483 167.897 189.382  0.00  0.00    +0.034 HD
ATOM    122  H   UNL     1     149.083 166.636 188.199  0.00  0.00    +0.034 HD
ATOM    123  H   UNL     1     147.951 168.003 188.488  0.00  0.00    +0.034 HD
ENDBRANCH 118 120
ENDBRANCH 117 118
ENDBRANCH  97 117
ENDBRANCH  91  97
ENDBRANCH  89  91
BRANCH  89 124
ATOM    124  O   UNL     1     151.798 167.220 191.730  0.00  0.00    -0.460 OA
BRANCH 124 125
ATOM    125  C   UNL     1     152.138 166.994 190.425  0.00  0.00    +0.324 C 
ATOM    126  O   UNL     1     152.448 167.870 189.626  0.00  0.00    -0.249 OA
BRANCH 125 127
ATOM    127  C   UNL     1     152.096 165.484 190.128  0.00  0.00    +0.105 C 
ATOM    128  H   UNL     1     151.166 165.071 190.541  0.00  0.00    +0.058 HD
BRANCH 127 129
ATOM    129  C   UNL     1     153.281 164.875 190.885  0.00  0.00    -0.039 C 
ATOM    130  H   UNL     1     153.178 163.788 190.978  0.00  0.00    +0.025 HD
ATOM    131  H   UNL     1     153.380 165.301 191.889  0.00  0.00    +0.025 HD
ATOM    132  H   UNL     1     154.222 165.066 190.356  0.00  0.00    +0.025 HD
ENDBRANCH 127 129
BRANCH 127 133
ATOM    133  N   UNL     1     152.136 165.233 188.658  0.00  0.00    -0.296 NA
BRANCH 133 134
ATOM    134  C   UNL     1     153.357 164.536 188.246  0.00  0.00    -0.012 C 
ATOM    135  H   UNL     1     153.118 163.716 187.559  0.00  0.00    +0.039 HD
ATOM    136  H   UNL     1     153.900 164.119 189.101  0.00  0.00    +0.039 HD
ATOM    137  H   UNL     1     154.026 165.201 187.692  0.00  0.00    +0.039 HD
ENDBRANCH 133 134
BRANCH 133 138
ATOM    138  C   UNL     1     150.967 164.458 188.221  0.00  0.00    -0.012 C 
ATOM    139  H   UNL     1     151.054 164.197 187.160  0.00  0.00    +0.039 HD
ATOM    140  H   UNL     1     150.854 163.531 188.794  0.00  0.00    +0.039 HD
ATOM    141  H   UNL     1     150.043 165.035 188.312  0.00  0.00    +0.039 HD
ENDBRANCH 133 138
ENDBRANCH 127 133
ENDBRANCH 125 127
ENDBRANCH 124 125
ENDBRANCH  89 124
ENDBRANCH  86  89
ENDBRANCH  83  86
ENDBRANCH  77  83
ENDBRANCH  75  77
BRANCH  75 142
ATOM    142  O   UNL     1     149.551 173.598 190.518  0.00  0.00    -0.391 OA
ATOM    143  H   UNL     1     149.150 174.365 190.959  0.00  0.00    +0.210 HD
ENDBRANCH  75 142
ENDBRANCH  69  75
ENDBRANCH  14  69
BRANCH  25 144
ATOM    144  O   UNL     1     139.802 178.507 189.097  0.00  0.00    -0.391 OA
ATOM    145  H   UNL     1     140.482 179.111 189.435  0.00  0.00    +0.210 HD
ENDBRANCH  25 144
BRANCH  23 146
ATOM    146  O   UNL     1     139.717 176.139 190.782  0.00  0.00    -0.460 OA
BRANCH 146 147
ATOM    147  C   UNL     1     139.195 176.467 191.991  0.00  0.00    +0.327 C 
ATOM    148  O   UNL     1     138.178 177.134 192.158  0.00  0.00    -0.249 OA
BRANCH 147 149
ATOM    149  C   UNL     1     139.994 175.836 193.141  0.00  0.00    +0.131 C 
ATOM    150  H   UNL     1     139.957 176.572 193.958  0.00  0.00    +0.060 HD
BRANCH 149 151
ATOM    151  C   UNL     1     141.480 175.744 192.713  0.00  0.00    +0.073 C 
ATOM    152  H   UNL     1     141.998 174.978 193.306  0.00  0.00    +0.058 HD
ATOM    153  H   UNL     1     141.531 175.445 191.658  0.00  0.00    +0.058 HD
BRANCH 151 154
ATOM    154  O   UNL     1     142.171 176.993 192.853  0.00  0.00    -0.381 OA
BRANCH 154 155
ATOM    155  C   UNL     1     142.891 177.318 191.671  0.00  0.00    +0.037 C 
ATOM    156  H   UNL     1     143.135 178.384 191.655  0.00  0.00    +0.052 HD
ATOM    157  H   UNL     1     143.802 176.718 191.601  0.00  0.00    +0.052 HD
ATOM    158  H   UNL     1     142.255 177.093 190.810  0.00  0.00    +0.052 HD
ENDBRANCH 154 155
ENDBRANCH 151 154
ENDBRANCH 149 151
BRANCH 149 159
ATOM    159  N   UNL     1     139.354 174.563 193.606  0.00  0.00    -0.294 NA
BRANCH 159 160
ATOM    160  C   UNL     1     138.516 174.784 194.789  0.00  0.00    -0.012 C 
ATOM    161  H   UNL     1     139.079 175.242 195.612  0.00  0.00    +0.039 HD
ATOM    162  H   UNL     1     138.098 173.837 195.150  0.00  0.00    +0.039 HD
ATOM    163  H   UNL     1     137.655 175.419 194.559  0.00  0.00    +0.039 HD
ENDBRANCH 159 160
BRANCH 159 164
ATOM    164  C   UNL     1     140.344 173.525 193.895  0.00  0.00    -0.012 C 
ATOM    165  H   UNL     1     141.113 173.496 193.112  0.00  0.00    +0.039 HD
ATOM    166  H   UNL     1     140.881 173.727 194.827  0.00  0.00    +0.039 HD
ATOM    167  H   UNL     1     139.890 172.530 193.963  0.00  0.00    +0.039 HD
ENDBRANCH 159 164
ENDBRANCH 149 159
ENDBRANCH 147 149
ENDBRANCH 146 147
ENDBRANCH  23 146
BRANCH   4 168
ATOM    168  O   UNL     1     144.559 177.528 185.663  0.00  0.00    -0.376 OA
BRANCH 168 169
ATOM    169  C   UNL     1     145.892 177.764 185.223  0.00  0.00    +0.037 C 
ATOM    170  H   UNL     1     146.571 177.369 185.982  0.00  0.00    +0.052 HD
ATOM    171  H   UNL     1     146.084 178.835 185.123  0.00  0.00    +0.052 HD
ATOM    172  H   UNL     1     146.091 177.251 184.280  0.00  0.00    +0.052 HD
ENDBRANCH 168 169
ENDBRANCH   4 168
BRANCH  10 173
ATOM    173  O   UNL     1     143.561 171.050 186.063  0.00  0.00    -0.376 OA
BRANCH 173 174
ATOM    174  C   UNL     1     142.502 171.913 186.446  0.00  0.00    +0.037 C 
ATOM    175  H   UNL     1     142.146 171.663 187.448  0.00  0.00    +0.052 HD
ATOM    176  H   UNL     1     141.675 171.777 185.744  0.00  0.00    +0.052 HD
ATOM    177  H   UNL     1     142.821 172.958 186.402  0.00  0.00    +0.052 HD
ENDBRANCH 173 174
ENDBRANCH  10 173
TORSDOF 45
ENDMDL
MODEL 9
REMARK VINA RESULT:      -5.4      1.685      4.647
REMARK  Name = Aplyronine A_conf3
REMARK  45 active torsions:
REMARK  status: ('A' for Active; 'I' for Inactive)
REMARK    1  A    between atoms: C_1  and  C_2
REMARK    2  A    between atoms: C_5  and  O_75
REMARK    3  A    between atoms: C_6  and  C_74
REMARK    4  A    between atoms: C_9  and  C_73
REMARK    5  A    between atoms: C_11  and  O_71
REMARK    6  A    between atoms: C_15  and  C_39
REMARK    7  A    between atoms: C_24  and  O_29
REMARK    8  A    between atoms: C_25  and  C_28
REMARK    9  A    between atoms: C_26  and  O_27
REMARK   10  A    between atoms: O_29  and  C_30
REMARK   11  A    between atoms: C_30  and  C_32
REMARK   12  A    between atoms: C_32  and  C_33
REMARK   13  A    between atoms: C_32  and  N_36
REMARK   14  A    between atoms: C_33  and  O_34
REMARK   15  A    between atoms: O_34  and  C_35
REMARK   16  A    between atoms: N_36  and  C_37
REMARK   17  A    between atoms: N_36  and  C_38
REMARK   18  A    between atoms: C_39  and  C_40
REMARK   19  A    between atoms: C_39  and  C_41
REMARK   20  A    between atoms: C_41  and  C_42
REMARK   21  A    between atoms: C_41  and  O_70
REMARK   22  A    between atoms: C_42  and  C_43
REMARK   23  A    between atoms: C_42  and  C_44
REMARK   24  A    between atoms: C_44  and  C_45
REMARK   25  A    between atoms: C_45  and  C_46
REMARK   26  A    between atoms: C_46  and  C_47
REMARK   27  A    between atoms: C_46  and  O_62
REMARK   28  A    between atoms: C_47  and  C_48
REMARK   29  A    between atoms: C_47  and  C_49
REMARK   30  A    between atoms: C_49  and  C_50
REMARK   31  A    between atoms: C_49  and  O_58
REMARK   32  A    between atoms: C_50  and  C_51
REMARK   33  A    between atoms: C_50  and  C_52
REMARK   34  A    between atoms: C_53  and  N_54
REMARK   35  A    between atoms: N_54  and  C_55
REMARK   36  A    between atoms: O_58  and  C_59
REMARK   37  A    between atoms: C_59  and  C_61
REMARK   38  A    between atoms: O_62  and  C_63
REMARK   39  A    between atoms: C_63  and  C_65
REMARK   40  A    between atoms: C_65  and  C_66
REMARK   41  A    between atoms: C_65  and  N_67
REMARK   42  A    between atoms: N_67  and  C_68
REMARK   43  A    between atoms: N_67  and  C_69
REMARK   44  A    between atoms: O_71  and  C_72
REMARK   45  A    between atoms: O_75  and  C_76
REMARK                            x       y       z     vdW  Elec       q    Type
REMARK                         _______ _______ _______ _____ _____    ______ ____
ROOT
ATOM      1  C   UNL     1     139.588 177.364 189.858  0.00  0.00    -0.017 C 
ATOM      2  C   UNL     1     140.153 176.729 188.568  0.00  0.00    -0.045 C 
ATOM      3  C   UNL     1     141.556 176.114 188.720  0.00  0.00    -0.022 C 
ATOM      4  C   UNL     1     142.627 176.652 187.736  0.00  0.00    +0.079 C 
ATOM      5  C   UNL     1     142.556 176.115 186.303  0.00  0.00    -0.048 C 
ATOM      6  C   UNL     1     143.664 175.585 185.738  0.00  0.00    -0.082 C 
ATOM      7  C   UNL     1     143.844 175.067 184.338  0.00  0.00    -0.032 C 
ATOM      8  C   UNL     1     143.573 173.559 184.150  0.00  0.00    -0.038 C 
ATOM      9  C   UNL     1     144.460 172.659 185.048  0.00  0.00    -0.020 C 
ATOM     10  C   UNL     1     143.866 172.414 186.446  0.00  0.00    +0.077 C 
ATOM     11  C   UNL     1     144.801 171.582 187.282  0.00  0.00    -0.059 C 
ATOM     12  C   UNL     1     145.646 172.068 188.207  0.00  0.00    -0.082 C 
ATOM     13  C   UNL     1     146.452 171.174 189.117  0.00  0.00    +0.003 C 
ATOM     14  C   UNL     1     146.387 171.548 190.618  0.00  0.00    +0.112 C 
ATOM     15  O   UNL     1     145.044 171.975 190.962  0.00  0.00    -0.458 OA
ATOM     16  C   UNL     1     144.045 171.066 190.994  0.00  0.00    +0.332 C 
ATOM     17  O   UNL     1     144.125 169.866 190.809  0.00  0.00    -0.246 OA
ATOM     18  C   UNL     1     142.823 171.837 191.279  0.00  0.00    +0.022 C 
ATOM     19  C   UNL     1     141.588 171.356 191.083  0.00  0.00    -0.055 C 
ATOM     20  C   UNL     1     140.453 172.204 191.352  0.00  0.00    -0.065 C 
ATOM     21  C   UNL     1     139.164 171.838 191.308  0.00  0.00    -0.081 C 
ATOM     22  C   UNL     1     137.978 172.700 191.702  0.00  0.00    +0.003 C 
ATOM     23  C   UNL     1     138.188 174.217 191.987  0.00  0.00    +0.111 C 
ATOM     24  C   UNL     1     138.484 175.052 190.693  0.00  0.00    +0.020 C 
ATOM     25  C   UNL     1     139.257 176.367 191.010  0.00  0.00    +0.064 C 
ATOM     26  H   UNL     1     140.373 178.025 190.257  0.00  0.00    +0.032 HD
ATOM     27  H   UNL     1     140.168 177.502 187.794  0.00  0.00    +0.027 HD
ATOM     28  H   UNL     1     139.467 175.962 188.195  0.00  0.00    +0.027 HD
ATOM     29  H   UNL     1     141.923 176.319 189.733  0.00  0.00    +0.029 HD
ATOM     30  H   UNL     1     141.491 175.022 188.634  0.00  0.00    +0.029 HD
ATOM     31  H   UNL     1     143.592 176.362 188.176  0.00  0.00    +0.064 HD
ATOM     32  H   UNL     1     144.578 175.543 186.333  0.00  0.00    +0.057 HD
ATOM     33  H   UNL     1     144.875 175.292 184.036  0.00  0.00    +0.031 HD
ATOM     34  H   UNL     1     143.221 175.641 183.640  0.00  0.00    +0.031 HD
ATOM     35  H   UNL     1     142.515 173.363 184.365  0.00  0.00    +0.030 HD
ATOM     36  H   UNL     1     145.465 173.092 185.127  0.00  0.00    +0.030 HD
ATOM     37  H   UNL     1     144.573 171.682 184.558  0.00  0.00    +0.030 HD
ATOM     38  H   UNL     1     143.658 173.357 186.955  0.00  0.00    +0.064 HD
ATOM     39  H   UNL     1     144.721 170.505 187.140  0.00  0.00    +0.059 HD
ATOM     40  H   UNL     1     145.744 173.141 188.355  0.00  0.00    +0.057 HD
ATOM     41  H   UNL     1     147.483 171.110 188.761  0.00  0.00    +0.034 HD
ATOM     42  H   UNL     1     146.059 170.151 189.024  0.00  0.00    +0.034 HD
ATOM     43  H   UNL     1     146.622 170.648 191.202  0.00  0.00    +0.074 HD
ATOM     44  H   UNL     1     142.981 172.847 191.647  0.00  0.00    +0.069 HD
ATOM     45  H   UNL     1     141.429 170.343 190.727  0.00  0.00    +0.062 HD
ATOM     46  H   UNL     1     140.719 173.213 191.657  0.00  0.00    +0.061 HD
ATOM     47  H   UNL     1     138.915 170.818 191.024  0.00  0.00    +0.057 HD
ATOM     48  H   UNL     1     137.207 172.577 190.935  0.00  0.00    +0.034 HD
ATOM     49  H   UNL     1     137.570 172.242 192.613  0.00  0.00    +0.034 HD
ATOM     50  H   UNL     1     137.266 174.616 192.434  0.00  0.00    +0.074 HD
ATOM     51  H   UNL     1     139.130 174.457 190.036  0.00  0.00    +0.036 HD
ATOM     52  H   UNL     1     140.230 176.057 191.409  0.00  0.00    +0.060 HD
ENDROOT
BRANCH   1  53
ATOM     53  C   UNL     1     138.443 178.329 189.506  0.00  0.00    -0.060 C 
ATOM     54  H   UNL     1     137.516 178.009 189.995  0.00  0.00    +0.023 HD
ATOM     55  H   UNL     1     138.238 178.335 188.431  0.00  0.00    +0.023 HD
ATOM     56  H   UNL     1     138.639 179.353 189.825  0.00  0.00    +0.023 HD
ENDBRANCH   1  53
BRANCH   5  57
ATOM     57  C   UNL     1     141.247 176.248 185.574  0.00  0.00    -0.041 C 
ATOM     58  H   UNL     1     140.409 176.109 186.263  0.00  0.00    +0.028 HD
ATOM     59  H   UNL     1     141.167 177.236 185.108  0.00  0.00    +0.028 HD
ATOM     60  H   UNL     1     141.116 175.511 184.779  0.00  0.00    +0.028 HD
ENDBRANCH   5  57
BRANCH  24  61
ATOM     61  C   UNL     1     137.163 175.283 189.943  0.00  0.00    -0.057 C 
ATOM     62  H   UNL     1     137.291 175.960 189.094  0.00  0.00    +0.023 HD
ATOM     63  H   UNL     1     136.755 174.345 189.557  0.00  0.00    +0.023 HD
ATOM     64  H   UNL     1     136.416 175.747 190.589  0.00  0.00    +0.023 HD
ENDBRANCH  24  61
BRANCH   8  65
ATOM     65  C   UNL     1     143.810 173.198 182.678  0.00  0.00    -0.062 C 
ATOM     66  H   UNL     1     142.922 173.402 182.071  0.00  0.00    +0.023 HD
ATOM     67  H   UNL     1     144.060 172.137 182.570  0.00  0.00    +0.023 HD
ATOM     68  H   UNL     1     144.644 173.777 182.266  0.00  0.00    +0.023 HD
ENDBRANCH   8  65
BRANCH  14  69
ATOM     69  C   UNL     1     147.329 172.695 191.121  0.00  0.00    +0.020 C 
ATOM     70  H   UNL     1     147.045 173.617 190.596  0.00  0.00    +0.036 HD
BRANCH  69  71
ATOM     71  C   UNL     1     147.028 172.914 192.620  0.00  0.00    -0.057 C 
ATOM     72  H   UNL     1     147.053 171.978 193.185  0.00  0.00    +0.023 HD
ATOM     73  H   UNL     1     146.043 173.375 192.758  0.00  0.00    +0.023 HD
ATOM     74  H   UNL     1     147.768 173.566 193.096  0.00  0.00    +0.023 HD
ENDBRANCH  69  71
BRANCH  69  75
ATOM     75  C   UNL     1     148.829 172.401 190.848  0.00  0.00    +0.064 C 
ATOM     76  H   UNL     1     148.885 171.712 189.995  0.00  0.00    +0.060 HD
BRANCH  75  77
ATOM     77  C   UNL     1     149.642 171.784 192.016  0.00  0.00    -0.017 C 
ATOM     78  H   UNL     1     150.705 171.912 191.779  0.00  0.00    +0.032 HD
BRANCH  77  79
ATOM     79  C   UNL     1     149.447 172.589 193.314  0.00  0.00    -0.060 C 
ATOM     80  H   UNL     1     150.282 173.258 193.532  0.00  0.00    +0.023 HD
ATOM     81  H   UNL     1     149.345 171.911 194.170  0.00  0.00    +0.023 HD
ATOM     82  H   UNL     1     148.533 173.191 193.262  0.00  0.00    +0.023 HD
ENDBRANCH  77  79
BRANCH  77  83
ATOM     83  C   UNL     1     149.434 170.266 192.256  0.00  0.00    -0.045 C 
ATOM     84  H   UNL     1     148.793 169.908 191.440  0.00  0.00    +0.027 HD
ATOM     85  H   UNL     1     148.859 170.116 193.176  0.00  0.00    +0.027 HD
BRANCH  83  86
ATOM     86  C   UNL     1     150.692 169.393 192.326  0.00  0.00    -0.015 C 
ATOM     87  H   UNL     1     151.173 169.508 193.303  0.00  0.00    +0.030 HD
ATOM     88  H   UNL     1     151.441 169.752 191.615  0.00  0.00    +0.030 HD
BRANCH  86  89
ATOM     89  C   UNL     1     150.420 167.904 192.019  0.00  0.00    +0.109 C 
ATOM     90  H   UNL     1     149.804 167.835 191.111  0.00  0.00    +0.074 HD
BRANCH  89  91
ATOM     91  C   UNL     1     149.700 167.062 193.118  0.00  0.00    +0.031 C 
ATOM     92  H   UNL     1     149.561 167.770 193.947  0.00  0.00    +0.037 HD
BRANCH  91  93
ATOM     93  C   UNL     1     150.619 165.948 193.631  0.00  0.00    -0.056 C 
ATOM     94  H   UNL     1     150.689 165.956 194.725  0.00  0.00    +0.023 HD
ATOM     95  H   UNL     1     151.631 166.036 193.226  0.00  0.00    +0.023 HD
ATOM     96  H   UNL     1     150.227 164.964 193.363  0.00  0.00    +0.023 HD
ENDBRANCH  91  93
BRANCH  91  97
ATOM     97  C   UNL     1     148.288 166.530 192.722  0.00  0.00    +0.115 C 
ATOM     98  H   UNL     1     148.398 165.475 192.436  0.00  0.00    +0.074 HD
BRANCH  97  99
ATOM     99  C   UNL     1     147.161 166.644 193.802  0.00  0.00    +0.013 C 
ATOM    100  H   UNL     1     147.422 167.501 194.440  0.00  0.00    +0.038 HD
BRANCH  99 101
ATOM    101  C   UNL     1     147.113 165.455 194.768  0.00  0.00    -0.056 C 
ATOM    102  H   UNL     1     147.863 165.572 195.560  0.00  0.00    +0.024 HD
ATOM    103  H   UNL     1     147.331 164.517 194.247  0.00  0.00    +0.024 HD
ATOM    104  H   UNL     1     146.139 165.360 195.258  0.00  0.00    +0.024 HD
ENDBRANCH  99 101
BRANCH  99 105
ATOM    105  C   UNL     1     145.785 166.923 193.229  0.00  0.00    -0.064 C 
ATOM    106  C   UNL     1     144.774 166.049 193.343  0.00  0.00    -0.005 C 
ATOM    107  H   UNL     1     145.667 167.852 192.685  0.00  0.00    +0.059 HD
ATOM    108  H   UNL     1     144.952 165.118 193.883  0.00  0.00    +0.078 HD
BRANCH 106 109
ATOM    109  N   UNL     1     143.482 166.181 192.857  0.00  0.00    -0.284 N 
ATOM    110  C   UNL     1     143.082 165.913 191.556  0.00  0.00    +0.206 C 
ATOM    111  O   UNL     1     141.950 166.047 191.102  0.00  0.00    -0.279 OA
ATOM    112  H   UNL     1     143.894 165.561 190.907  0.00  0.00    +0.126 HD
BRANCH 109 113
ATOM    113  C   UNL     1     142.472 166.672 193.792  0.00  0.00    +0.007 C 
ATOM    114  H   UNL     1     142.342 167.756 193.723  0.00  0.00    +0.043 HD
ATOM    115  H   UNL     1     141.513 166.191 193.574  0.00  0.00    +0.043 HD
ATOM    116  H   UNL     1     142.785 166.424 194.811  0.00  0.00    +0.043 HD
ENDBRANCH 109 113
ENDBRANCH 106 109
ENDBRANCH  99 105
ENDBRANCH  97  99
BRANCH  97 117
ATOM    117  O   UNL     1     147.840 167.277 191.560  0.00  0.00    -0.461 OA
BRANCH 117 118
ATOM    118  C   UNL     1     147.672 166.578 190.405  0.00  0.00    +0.304 C 
ATOM    119  O   UNL     1     147.216 165.447 190.316  0.00  0.00    -0.251 OA
BRANCH 118 120
ATOM    120  C   UNL     1     148.124 167.404 189.241  0.00  0.00    +0.033 C 
ATOM    121  H   UNL     1     148.611 166.757 188.505  0.00  0.00    +0.034 HD
ATOM    122  H   UNL     1     147.262 167.880 188.767  0.00  0.00    +0.034 HD
ATOM    123  H   UNL     1     148.843 168.156 189.578  0.00  0.00    +0.034 HD
ENDBRANCH 118 120
ENDBRANCH 117 118
ENDBRANCH  97 117
ENDBRANCH  91  97
ENDBRANCH  89  91
BRANCH  89 124
ATOM    124  O   UNL     1     151.686 167.259 191.724  0.00  0.00    -0.460 OA
BRANCH 124 125
ATOM    125  C   UNL     1     151.963 167.056 190.401  0.00  0.00    +0.324 C 
ATOM    126  O   UNL     1     152.447 167.899 189.655  0.00  0.00    -0.249 OA
BRANCH 125 127
ATOM    127  C   UNL     1     151.598 165.613 190.006  0.00  0.00    +0.105 C 
ATOM    128  H   UNL     1     150.619 165.368 190.439  0.00  0.00    +0.058 HD
BRANCH 127 129
ATOM    129  C   UNL     1     152.660 164.720 190.656  0.00  0.00    -0.039 C 
ATOM    130  H   UNL     1     152.933 163.885 190.002  0.00  0.00    +0.025 HD
ATOM    131  H   UNL     1     152.314 164.312 191.611  0.00  0.00    +0.025 HD
ATOM    132  H   UNL     1     153.577 165.287 190.857  0.00  0.00    +0.025 HD
ENDBRANCH 127 129
BRANCH 127 133
ATOM    133  N   UNL     1     151.529 165.473 188.522  0.00  0.00    -0.296 NA
BRANCH 133 134
ATOM    134  C   UNL     1     152.730 164.844 187.967  0.00  0.00    -0.012 C 
ATOM    135  H   UNL     1     152.711 164.877 186.872  0.00  0.00    +0.039 HD
ATOM    136  H   UNL     1     152.826 163.798 188.277  0.00  0.00    +0.039 HD
ATOM    137  H   UNL     1     153.634 165.384 188.263  0.00  0.00    +0.039 HD
ENDBRANCH 133 134
BRANCH 133 138
ATOM    138  C   UNL     1     150.349 164.697 188.118  0.00  0.00    -0.012 C 
ATOM    139  H   UNL     1     149.859 164.259 188.995  0.00  0.00    +0.039 HD
ATOM    140  H   UNL     1     149.616 165.315 187.587  0.00  0.00    +0.039 HD
ATOM    141  H   UNL     1     150.620 163.854 187.475  0.00  0.00    +0.039 HD
ENDBRANCH 133 138
ENDBRANCH 127 133
ENDBRANCH 125 127
ENDBRANCH 124 125
ENDBRANCH  89 124
ENDBRANCH  86  89
ENDBRANCH  83  86
ENDBRANCH  77  83
ENDBRANCH  75  77
BRANCH  75 142
ATOM    142  O   UNL     1     149.442 173.626 190.441  0.00  0.00    -0.391 OA
ATOM    143  H   UNL     1     148.847 174.356 190.679  0.00  0.00    +0.210 HD
ENDBRANCH  75 142
ENDBRANCH  69  75
ENDBRANCH  14  69
BRANCH  25 144
ATOM    144  O   UNL     1     138.620 177.073 192.080  0.00  0.00    -0.391 OA
ATOM    145  H   UNL     1     139.034 176.804 192.915  0.00  0.00    +0.210 HD
ENDBRANCH  25 144
BRANCH  23 146
ATOM    146  O   UNL     1     139.267 174.370 192.929  0.00  0.00    -0.460 OA
BRANCH 146 147
ATOM    147  C   UNL     1     139.060 173.985 194.214  0.00  0.00    +0.327 C 
ATOM    148  O   UNL     1     139.659 173.072 194.777  0.00  0.00    -0.249 OA
BRANCH 147 149
ATOM    149  C   UNL     1     138.033 174.885 194.916  0.00  0.00    +0.131 C 
ATOM    150  H   UNL     1     137.519 175.424 194.107  0.00  0.00    +0.060 HD
BRANCH 149 151
ATOM    151  C   UNL     1     138.798 175.960 195.729  0.00  0.00    +0.073 C 
ATOM    152  H   UNL     1     138.160 176.354 196.531  0.00  0.00    +0.058 HD
ATOM    153  H   UNL     1     139.678 175.497 196.195  0.00  0.00    +0.058 HD
BRANCH 151 154
ATOM    154  O   UNL     1     139.252 177.049 194.912  0.00  0.00    -0.381 OA
BRANCH 154 155
ATOM    155  C   UNL     1     140.669 177.160 194.943  0.00  0.00    +0.037 C 
ATOM    156  H   UNL     1     140.965 178.175 195.219  0.00  0.00    +0.052 HD
ATOM    157  H   UNL     1     141.093 176.436 195.645  0.00  0.00    +0.052 HD
ATOM    158  H   UNL     1     141.051 176.944 193.942  0.00  0.00    +0.052 HD
ENDBRANCH 154 155
ENDBRANCH 151 154
ENDBRANCH 149 151
BRANCH 149 159
ATOM    159  N   UNL     1     137.028 174.069 195.670  0.00  0.00    -0.294 NA
BRANCH 159 160
ATOM    160  C   UNL     1     135.897 173.689 194.817  0.00  0.00    -0.012 C 
ATOM    161  H   UNL     1     134.932 173.903 195.293  0.00  0.00    +0.039 HD
ATOM    162  H   UNL     1     135.931 172.618 194.584  0.00  0.00    +0.039 HD
ATOM    163  H   UNL     1     135.931 174.203 193.852  0.00  0.00    +0.039 HD
ENDBRANCH 159 160
BRANCH 159 164
ATOM    164  C   UNL     1     136.532 174.769 196.857  0.00  0.00    -0.012 C 
ATOM    165  H   UNL     1     137.112 174.483 197.743  0.00  0.00    +0.039 HD
ATOM    166  H   UNL     1     136.650 175.853 196.765  0.00  0.00    +0.039 HD
ATOM    167  H   UNL     1     135.477 174.548 197.054  0.00  0.00    +0.039 HD
ENDBRANCH 159 164
ENDBRANCH 149 159
ENDBRANCH 147 149
ENDBRANCH 146 147
ENDBRANCH  23 146
BRANCH   4 168
ATOM    168  O   UNL     1     142.562 178.088 187.743  0.00  0.00    -0.376 OA
BRANCH 168 169
ATOM    169  C   UNL     1     143.836 178.710 187.866  0.00  0.00    +0.037 C 
ATOM    170  H   UNL     1     143.827 179.618 187.260  0.00  0.00    +0.052 HD
ATOM    171  H   UNL     1     144.625 178.057 187.483  0.00  0.00    +0.052 HD
ATOM    172  H   UNL     1     144.039 178.987 188.902  0.00  0.00    +0.052 HD
ENDBRANCH 168 169
ENDBRANCH   4 168
BRANCH  10 173
ATOM    173  O   UNL     1     142.640 171.689 186.267  0.00  0.00    -0.376 OA
BRANCH 173 174
ATOM    174  C   UNL     1     141.595 172.141 187.115  0.00  0.00    +0.037 C 
ATOM    175  H   UNL     1     141.723 171.747 188.125  0.00  0.00    +0.052 HD
ATOM    176  H   UNL     1     140.645 171.771 186.718  0.00  0.00    +0.052 HD
ATOM    177  H   UNL     1     141.558 173.234 187.131  0.00  0.00    +0.052 HD
ENDBRANCH 173 174
ENDBRANCH  10 173
TORSDOF 45
ENDMDL
MODEL 10
REMARK VINA RESULT:      -5.3      3.711     13.311
REMARK  Name = Aplyronine A_conf3
REMARK  45 active torsions:
REMARK  status: ('A' for Active; 'I' for Inactive)
REMARK    1  A    between atoms: C_1  and  C_2
REMARK    2  A    between atoms: C_5  and  O_75
REMARK    3  A    between atoms: C_6  and  C_74
REMARK    4  A    between atoms: C_9  and  C_73
REMARK    5  A    between atoms: C_11  and  O_71
REMARK    6  A    between atoms: C_15  and  C_39
REMARK    7  A    between atoms: C_24  and  O_29
REMARK    8  A    between atoms: C_25  and  C_28
REMARK    9  A    between atoms: C_26  and  O_27
REMARK   10  A    between atoms: O_29  and  C_30
REMARK   11  A    between atoms: C_30  and  C_32
REMARK   12  A    between atoms: C_32  and  C_33
REMARK   13  A    between atoms: C_32  and  N_36
REMARK   14  A    between atoms: C_33  and  O_34
REMARK   15  A    between atoms: O_34  and  C_35
REMARK   16  A    between atoms: N_36  and  C_37
REMARK   17  A    between atoms: N_36  and  C_38
REMARK   18  A    between atoms: C_39  and  C_40
REMARK   19  A    between atoms: C_39  and  C_41
REMARK   20  A    between atoms: C_41  and  C_42
REMARK   21  A    between atoms: C_41  and  O_70
REMARK   22  A    between atoms: C_42  and  C_43
REMARK   23  A    between atoms: C_42  and  C_44
REMARK   24  A    between atoms: C_44  and  C_45
REMARK   25  A    between atoms: C_45  and  C_46
REMARK   26  A    between atoms: C_46  and  C_47
REMARK   27  A    between atoms: C_46  and  O_62
REMARK   28  A    between atoms: C_47  and  C_48
REMARK   29  A    between atoms: C_47  and  C_49
REMARK   30  A    between atoms: C_49  and  C_50
REMARK   31  A    between atoms: C_49  and  O_58
REMARK   32  A    between atoms: C_50  and  C_51
REMARK   33  A    between atoms: C_50  and  C_52
REMARK   34  A    between atoms: C_53  and  N_54
REMARK   35  A    between atoms: N_54  and  C_55
REMARK   36  A    between atoms: O_58  and  C_59
REMARK   37  A    between atoms: C_59  and  C_61
REMARK   38  A    between atoms: O_62  and  C_63
REMARK   39  A    between atoms: C_63  and  C_65
REMARK   40  A    between atoms: C_65  and  C_66
REMARK   41  A    between atoms: C_65  and  N_67
REMARK   42  A    between atoms: N_67  and  C_68
REMARK   43  A    between atoms: N_67  and  C_69
REMARK   44  A    between atoms: O_71  and  C_72
REMARK   45  A    between atoms: O_75  and  C_76
REMARK                            x       y       z     vdW  Elec       q    Type
REMARK                         _______ _______ _______ _____ _____    ______ ____
ROOT
ATOM      1  C   UNL     1     153.663 166.339 189.935  0.00  0.00    -0.017 C 
ATOM      2  C   UNL     1     152.368 166.149 190.756  0.00  0.00    -0.045 C 
ATOM      3  C   UNL     1     151.159 166.950 190.238  0.00  0.00    -0.022 C 
ATOM      4  C   UNL     1     150.494 167.892 191.275  0.00  0.00    +0.079 C 
ATOM      5  C   UNL     1     149.593 167.219 192.315  0.00  0.00    -0.048 C 
ATOM      6  C   UNL     1     148.334 167.677 192.497  0.00  0.00    -0.082 C 
ATOM      7  C   UNL     1     147.307 167.223 193.496  0.00  0.00    -0.032 C 
ATOM      8  C   UNL     1     146.352 166.113 193.007  0.00  0.00    -0.038 C 
ATOM      9  C   UNL     1     145.556 166.505 191.737  0.00  0.00    -0.020 C 
ATOM     10  C   UNL     1     146.302 166.199 190.427  0.00  0.00    +0.077 C 
ATOM     11  C   UNL     1     145.498 166.655 189.238  0.00  0.00    -0.059 C 
ATOM     12  C   UNL     1     145.696 167.803 188.569  0.00  0.00    -0.082 C 
ATOM     13  C   UNL     1     144.957 168.136 187.296  0.00  0.00    +0.003 C 
ATOM     14  C   UNL     1     145.855 168.623 186.133  0.00  0.00    +0.112 C 
ATOM     15  O   UNL     1     147.096 167.872 186.120  0.00  0.00    -0.458 OA
ATOM     16  C   UNL     1     147.080 166.570 185.759  0.00  0.00    +0.332 C 
ATOM     17  O   UNL     1     146.128 165.915 185.378  0.00  0.00    -0.246 OA
ATOM     18  C   UNL     1     148.463 166.096 185.944  0.00  0.00    +0.022 C 
ATOM     19  C   UNL     1     148.795 164.799 185.995  0.00  0.00    -0.055 C 
ATOM     20  C   UNL     1     150.171 164.435 186.222  0.00  0.00    -0.065 C 
ATOM     21  C   UNL     1     150.676 163.193 186.194  0.00  0.00    -0.081 C 
ATOM     22  C   UNL     1     152.143 162.824 186.320  0.00  0.00    +0.003 C 
ATOM     23  C   UNL     1     153.179 163.910 186.732  0.00  0.00    +0.111 C 
ATOM     24  C   UNL     1     153.061 164.335 188.237  0.00  0.00    +0.020 C 
ATOM     25  C   UNL     1     153.633 165.764 188.487  0.00  0.00    +0.064 C 
ATOM     26  H   UNL     1     153.808 167.424 189.817  0.00  0.00    +0.032 HD
ATOM     27  H   UNL     1     152.584 166.430 191.791  0.00  0.00    +0.027 HD
ATOM     28  H   UNL     1     152.101 165.088 190.795  0.00  0.00    +0.027 HD
ATOM     29  H   UNL     1     151.485 167.579 189.401  0.00  0.00    +0.029 HD
ATOM     30  H   UNL     1     150.409 166.262 189.829  0.00  0.00    +0.029 HD
ATOM     31  H   UNL     1     149.889 168.591 190.680  0.00  0.00    +0.064 HD
ATOM     32  H   UNL     1     147.993 168.511 191.879  0.00  0.00    +0.057 HD
ATOM     33  H   UNL     1     146.722 168.105 193.789  0.00  0.00    +0.031 HD
ATOM     34  H   UNL     1     147.800 166.900 194.423  0.00  0.00    +0.031 HD
ATOM     35  H   UNL     1     146.939 165.208 192.807  0.00  0.00    +0.030 HD
ATOM     36  H   UNL     1     145.282 167.567 191.785  0.00  0.00    +0.030 HD
ATOM     37  H   UNL     1     144.615 165.936 191.726  0.00  0.00    +0.030 HD
ATOM     38  H   UNL     1     147.283 166.678 190.413  0.00  0.00    +0.064 HD
ATOM     39  H   UNL     1     144.745 165.951 188.887  0.00  0.00    +0.059 HD
ATOM     40  H   UNL     1     146.439 168.520 188.912  0.00  0.00    +0.057 HD
ATOM     41  H   UNL     1     144.151 168.843 187.507  0.00  0.00    +0.034 HD
ATOM     42  H   UNL     1     144.448 167.225 186.950  0.00  0.00    +0.034 HD
ATOM     43  H   UNL     1     145.325 168.429 185.191  0.00  0.00    +0.074 HD
ATOM     44  H   UNL     1     149.213 166.873 186.058  0.00  0.00    +0.069 HD
ATOM     45  H   UNL     1     148.047 164.022 185.869  0.00  0.00    +0.062 HD
ATOM     46  H   UNL     1     150.831 165.283 186.384  0.00  0.00    +0.061 HD
ATOM     47  H   UNL     1     150.006 162.356 186.008  0.00  0.00    +0.057 HD
ATOM     48  H   UNL     1     152.214 161.973 187.006  0.00  0.00    +0.034 HD
ATOM     49  H   UNL     1     152.435 162.438 185.334  0.00  0.00    +0.034 HD
ATOM     50  H   UNL     1     154.188 163.500 186.583  0.00  0.00    +0.074 HD
ATOM     51  H   UNL     1     151.999 164.370 188.505  0.00  0.00    +0.036 HD
ATOM     52  H   UNL     1     152.993 166.449 187.918  0.00  0.00    +0.060 HD
ENDROOT
BRANCH   1  53
ATOM     53  C   UNL     1     154.878 165.898 190.768  0.00  0.00    -0.060 C 
ATOM     54  H   UNL     1     155.799 166.312 190.340  0.00  0.00    +0.023 HD
ATOM     55  H   UNL     1     154.997 164.811 190.762  0.00  0.00    +0.023 HD
ATOM     56  H   UNL     1     154.825 166.234 191.804  0.00  0.00    +0.023 HD
ENDBRANCH   1  53
BRANCH   5  57
ATOM     57  C   UNL     1     150.180 166.095 193.122  0.00  0.00    -0.041 C 
ATOM     58  H   UNL     1     150.928 165.552 192.537  0.00  0.00    +0.028 HD
ATOM     59  H   UNL     1     150.651 166.482 194.033  0.00  0.00    +0.028 HD
ATOM     60  H   UNL     1     149.442 165.354 193.438  0.00  0.00    +0.028 HD
ENDBRANCH   5  57
BRANCH  24  61
ATOM     61  C   UNL     1     153.715 163.252 189.107  0.00  0.00    -0.057 C 
ATOM     62  H   UNL     1     153.031 162.879 189.874  0.00  0.00    +0.023 HD
ATOM     63  H   UNL     1     154.034 162.397 188.506  0.00  0.00    +0.023 HD
ATOM     64  H   UNL     1     154.583 163.643 189.643  0.00  0.00    +0.023 HD
ENDBRANCH  24  61
BRANCH   8  65
ATOM     65  C   UNL     1     145.371 165.777 194.138  0.00  0.00    -0.062 C 
ATOM     66  H   UNL     1     144.475 166.403 194.086  0.00  0.00    +0.023 HD
ATOM     67  H   UNL     1     145.837 165.929 195.118  0.00  0.00    +0.023 HD
ATOM     68  H   UNL     1     145.058 164.729 194.081  0.00  0.00    +0.023 HD
ENDBRANCH   8  65
BRANCH  14  69
ATOM     69  C   UNL     1     146.283 170.131 186.129  0.00  0.00    +0.020 C 
ATOM     70  H   UNL     1     146.626 170.385 187.142  0.00  0.00    +0.036 HD
BRANCH  69  71
ATOM     71  C   UNL     1     147.502 170.261 185.190  0.00  0.00    -0.057 C 
ATOM     72  H   UNL     1     148.337 170.779 185.669  0.00  0.00    +0.023 HD
ATOM     73  H   UNL     1     147.236 170.806 184.277  0.00  0.00    +0.023 HD
ATOM     74  H   UNL     1     147.894 169.283 184.889  0.00  0.00    +0.023 HD
ENDBRANCH  69  71
BRANCH  69  75
ATOM     75  C   UNL     1     145.120 171.083 185.737  0.00  0.00    +0.064 C 
ATOM     76  H   UNL     1     145.562 171.998 185.322  0.00  0.00    +0.060 HD
BRANCH  75  77
ATOM     77  C   UNL     1     144.145 171.494 186.871  0.00  0.00    -0.017 C 
ATOM     78  H   UNL     1     144.545 171.090 187.810  0.00  0.00    +0.032 HD
BRANCH  77  79
ATOM     79  C   UNL     1     144.153 173.019 187.084  0.00  0.00    -0.060 C 
ATOM     80  H   UNL     1     145.136 173.468 186.925  0.00  0.00    +0.023 HD
ATOM     81  H   UNL     1     143.849 173.261 188.110  0.00  0.00    +0.023 HD
ATOM     82  H   UNL     1     143.442 173.508 186.408  0.00  0.00    +0.023 HD
ENDBRANCH  77  79
BRANCH  77  83
ATOM     83  C   UNL     1     142.698 170.947 186.749  0.00  0.00    -0.045 C 
ATOM     84  H   UNL     1     142.782 169.853 186.718  0.00  0.00    +0.027 HD
ATOM     85  H   UNL     1     142.275 171.243 185.783  0.00  0.00    +0.027 HD
BRANCH  83  86
ATOM     86  C   UNL     1     141.709 171.344 187.851  0.00  0.00    -0.015 C 
ATOM     87  H   UNL     1     140.749 171.627 187.408  0.00  0.00    +0.030 HD
ATOM     88  H   UNL     1     142.050 172.253 188.355  0.00  0.00    +0.030 HD
BRANCH  86  89
ATOM     89  C   UNL     1     141.518 170.248 188.923  0.00  0.00    +0.109 C 
ATOM     90  H   UNL     1     140.504 170.333 189.341  0.00  0.00    +0.074 HD
BRANCH  89  91
ATOM     91  C   UNL     1     142.505 170.242 190.131  0.00  0.00    +0.031 C 
ATOM     92  H   UNL     1     143.489 170.417 189.672  0.00  0.00    +0.037 HD
BRANCH  91  93
ATOM     93  C   UNL     1     142.555 168.854 190.779  0.00  0.00    -0.056 C 
ATOM     94  H   UNL     1     143.525 168.370 190.617  0.00  0.00    +0.023 HD
ATOM     95  H   UNL     1     141.775 168.195 190.389  0.00  0.00    +0.023 HD
ATOM     96  H   UNL     1     142.434 168.926 191.863  0.00  0.00    +0.023 HD
ENDBRANCH  91  93
BRANCH  91  97
ATOM     97  C   UNL     1     142.275 171.377 191.177  0.00  0.00    +0.115 C 
ATOM     98  H   UNL     1     142.193 170.907 192.166  0.00  0.00    +0.074 HD
BRANCH  97  99
ATOM     99  C   UNL     1     143.356 172.506 191.244  0.00  0.00    +0.013 C 
ATOM    100  H   UNL     1     143.493 172.748 192.308  0.00  0.00    +0.038 HD
BRANCH  99 101
ATOM    101  C   UNL     1     142.905 173.829 190.613  0.00  0.00    -0.056 C 
ATOM    102  H   UNL     1     143.046 173.805 189.526  0.00  0.00    +0.024 HD
ATOM    103  H   UNL     1     143.491 174.668 191.001  0.00  0.00    +0.024 HD
ATOM    104  H   UNL     1     141.845 174.033 190.797  0.00  0.00    +0.024 HD
ENDBRANCH  99 101
BRANCH  99 105
ATOM    105  C   UNL     1     144.712 172.094 190.706  0.00  0.00    -0.064 C 
ATOM    106  C   UNL     1     145.857 172.442 191.311  0.00  0.00    -0.005 C 
ATOM    107  H   UNL     1     144.714 171.532 189.779  0.00  0.00    +0.059 HD
ATOM    108  H   UNL     1     145.800 173.026 192.230  0.00  0.00    +0.078 HD
BRANCH 106 109
ATOM    109  N   UNL     1     147.151 172.138 190.915  0.00  0.00    -0.284 N 
ATOM    110  C   UNL     1     148.229 173.011 190.955  0.00  0.00    +0.206 C 
ATOM    111  O   UNL     1     149.374 172.769 190.587  0.00  0.00    -0.279 OA
ATOM    112  H   UNL     1     147.980 174.004 191.351  0.00  0.00    +0.126 HD
BRANCH 109 113
ATOM    113  C   UNL     1     147.381 170.796 190.386  0.00  0.00    +0.007 C 
ATOM    114  H   UNL     1     148.446 170.546 190.351  0.00  0.00    +0.043 HD
ATOM    115  H   UNL     1     146.872 170.064 191.022  0.00  0.00    +0.043 HD
ATOM    116  H   UNL     1     146.979 170.744 189.370  0.00  0.00    +0.043 HD
ENDBRANCH 109 113
ENDBRANCH 106 109
ENDBRANCH  99 105
ENDBRANCH  97  99
BRANCH  97 117
ATOM    117  O   UNL     1     141.009 172.019 190.866  0.00  0.00    -0.461 OA
BRANCH 117 118
ATOM    118  C   UNL     1     140.044 171.973 191.823  0.00  0.00    +0.304 C 
ATOM    119  O   UNL     1     140.134 172.439 192.951  0.00  0.00    -0.251 OA
BRANCH 118 120
ATOM    120  C   UNL     1     138.836 171.267 191.292  0.00  0.00    +0.033 C 
ATOM    121  H   UNL     1     139.138 170.580 190.496  0.00  0.00    +0.034 HD
ATOM    122  H   UNL     1     138.364 170.687 192.090  0.00  0.00    +0.034 HD
ATOM    123  H   UNL     1     138.134 171.996 190.879  0.00  0.00    +0.034 HD
ENDBRANCH 118 120
ENDBRANCH 117 118
ENDBRANCH  97 117
ENDBRANCH  91  97
ENDBRANCH  89  91
BRANCH  89 124
ATOM    124  O   UNL     1     141.604 168.953 188.273  0.00  0.00    -0.460 OA
BRANCH 124 125
ATOM    125  C   UNL     1     140.414 168.333 188.013  0.00  0.00    +0.324 C 
ATOM    126  O   UNL     1     139.316 168.770 188.336  0.00  0.00    -0.249 OA
BRANCH 125 127
ATOM    127  C   UNL     1     140.665 167.026 187.238  0.00  0.00    +0.105 C 
ATOM    128  H   UNL     1     139.736 166.440 187.228  0.00  0.00    +0.058 HD
BRANCH 127 129
ATOM    129  C   UNL     1     141.720 166.259 188.042  0.00  0.00    -0.039 C 
ATOM    130  H   UNL     1     142.190 166.901 188.796  0.00  0.00    +0.025 HD
ATOM    131  H   UNL     1     142.505 165.855 187.395  0.00  0.00    +0.025 HD
ATOM    132  H   UNL     1     141.268 165.414 188.574  0.00  0.00    +0.025 HD
ENDBRANCH 127 129
BRANCH 127 133
ATOM    133  N   UNL     1     141.081 167.315 185.835  0.00  0.00    -0.296 NA
BRANCH 133 134
ATOM    134  C   UNL     1     142.215 166.492 185.409  0.00  0.00    -0.012 C 
ATOM    135  H   UNL     1     142.488 166.719 184.373  0.00  0.00    +0.039 HD
ATOM    136  H   UNL     1     141.994 165.422 185.479  0.00  0.00    +0.039 HD
ATOM    137  H   UNL     1     143.107 166.708 186.005  0.00  0.00    +0.039 HD
ENDBRANCH 133 134
BRANCH 133 138
ATOM    138  C   UNL     1     139.964 167.116 184.901  0.00  0.00    -0.012 C 
ATOM    139  H   UNL     1     139.517 168.078 184.627  0.00  0.00    +0.039 HD
ATOM    140  H   UNL     1     140.285 166.612 183.982  0.00  0.00    +0.039 HD
ATOM    141  H   UNL     1     139.159 166.530 185.353  0.00  0.00    +0.039 HD
ENDBRANCH 133 138
ENDBRANCH 127 133
ENDBRANCH 125 127
ENDBRANCH 124 125
ENDBRANCH  89 124
ENDBRANCH  86  89
ENDBRANCH  83  86
ENDBRANCH  77  83
ENDBRANCH  75  77
BRANCH  75 142
ATOM    142  O   UNL     1     144.384 170.455 184.685  0.00  0.00    -0.391 OA
ATOM    143  H   UNL     1     144.703 170.811 183.839  0.00  0.00    +0.210 HD
ENDBRANCH  75 142
ENDBRANCH  69  75
ENDBRANCH  14  69
BRANCH  25 144
ATOM    144  O   UNL     1     154.933 165.889 187.899  0.00  0.00    -0.391 OA
ATOM    145  H   UNL     1     155.416 166.587 188.370  0.00  0.00    +0.210 HD
ENDBRANCH  25 144
BRANCH  23 146
ATOM    146  O   UNL     1     153.013 165.059 185.880  0.00  0.00    -0.460 OA
BRANCH 146 147
ATOM    147  C   UNL     1     153.475 164.990 184.606  0.00  0.00    +0.327 C 
ATOM    148  O   UNL     1     152.765 164.978 183.603  0.00  0.00    -0.249 OA
BRANCH 147 149
ATOM    149  C   UNL     1     155.010 165.007 184.558  0.00  0.00    +0.131 C 
ATOM    150  H   UNL     1     155.334 164.711 185.567  0.00  0.00    +0.060 HD
BRANCH 149 151
ATOM    151  C   UNL     1     155.478 166.472 184.370  0.00  0.00    +0.073 C 
ATOM    152  H   UNL     1     156.122 166.553 183.484  0.00  0.00    +0.058 HD
ATOM    153  H   UNL     1     154.600 167.110 184.208  0.00  0.00    +0.058 HD
BRANCH 151 154
ATOM    154  O   UNL     1     156.186 166.975 185.512  0.00  0.00    -0.381 OA
BRANCH 154 155
ATOM    155  C   UNL     1     157.294 167.775 185.120  0.00  0.00    +0.037 C 
ATOM    156  H   UNL     1     157.168 168.801 185.477  0.00  0.00    +0.052 HD
ATOM    157  H   UNL     1     158.226 167.350 185.502  0.00  0.00    +0.052 HD
ATOM    158  H   UNL     1     157.336 167.789 184.027  0.00  0.00    +0.052 HD
ENDBRANCH 154 155
ENDBRANCH 151 154
ENDBRANCH 149 151
BRANCH 149 159
ATOM    159  N   UNL     1     155.529 164.009 183.569  0.00  0.00    -0.294 NA
BRANCH 159 160
ATOM    160  C   UNL     1     155.569 162.659 184.140  0.00  0.00    -0.012 C 
ATOM    161  H   UNL     1     156.018 162.648 185.141  0.00  0.00    +0.039 HD
ATOM    162  H   UNL     1     156.151 161.985 183.500  0.00  0.00    +0.039 HD
ATOM    163  H   UNL     1     154.569 162.219 184.201  0.00  0.00    +0.039 HD
ENDBRANCH 159 160
BRANCH 159 164
ATOM    164  C   UNL     1     156.858 164.369 183.072  0.00  0.00    -0.012 C 
ATOM    165  H   UNL     1     157.203 163.639 182.329  0.00  0.00    +0.039 HD
ATOM    166  H   UNL     1     156.848 165.334 182.554  0.00  0.00    +0.039 HD
ATOM    167  H   UNL     1     157.600 164.413 183.876  0.00  0.00    +0.039 HD
ENDBRANCH 159 164
ENDBRANCH 149 159
ENDBRANCH 147 149
ENDBRANCH 146 147
ENDBRANCH  23 146
BRANCH   4 168
ATOM    168  O   UNL     1     151.530 168.653 191.918  0.00  0.00    -0.376 OA
BRANCH 168 169
ATOM    169  C   UNL     1     151.241 170.045 191.994  0.00  0.00    +0.037 C 
ATOM    170  H   UNL     1     150.853 170.361 191.023  0.00  0.00    +0.052 HD
ATOM    171  H   UNL     1     152.148 170.619 192.197  0.00  0.00    +0.052 HD
ATOM    172  H   UNL     1     150.483 170.248 192.753  0.00  0.00    +0.052 HD
ENDBRANCH 168 169
ENDBRANCH   4 168
BRANCH  10 173
ATOM    173  O   UNL     1     146.466 164.775 190.353  0.00  0.00    -0.376 OA
BRANCH 173 174
ATOM    174  C   UNL     1     145.570 164.155 189.443  0.00  0.00    +0.037 C 
ATOM    175  H   UNL     1     145.052 164.906 188.843  0.00  0.00    +0.052 HD
ATOM    176  H   UNL     1     144.824 163.600 190.019  0.00  0.00    +0.052 HD
ATOM    177  H   UNL     1     146.102 163.449 188.799  0.00  0.00    +0.052 HD
ENDBRANCH 173 174
ENDBRANCH  10 173
TORSDOF 45
ENDMDL
