MODEL 1
REMARK VINA RESULT:      -6.2      0.000      0.000
REMARK  Name = Bistramide A_conf3
REMARK  27 active torsions:
REMARK  status: ('A' for Active; 'I' for Inactive)
REMARK    1  A    between atoms: C_1  and  C_2
REMARK    2  A    between atoms: C_3  and  C_4
REMARK    3  A    between atoms: C_4  and  C_6
REMARK    4  A    between atoms: C_6  and  C_7
REMARK    5  A    between atoms: C_10  and  C_50
REMARK    6  A    between atoms: C_11  and  C_13
REMARK    7  A    between atoms: C_13  and  C_14
REMARK    8  A    between atoms: N_16  and  C_17
REMARK    9  A    between atoms: C_17  and  C_18
REMARK   10  A    between atoms: C_18  and  C_19
REMARK   11  A    between atoms: C_18  and  O_49
REMARK   12  A    between atoms: C_19  and  C_20
REMARK   13  A    between atoms: C_19  and  C_21
REMARK   14  A    between atoms: N_23  and  C_24
REMARK   15  A    between atoms: C_24  and  C_25
REMARK   16  A    between atoms: C_25  and  C_26
REMARK   17  A    between atoms: C_26  and  C_27
REMARK   18  A    between atoms: C_28  and  C_48
REMARK   19  A    between atoms: C_36  and  C_38
REMARK   20  A    between atoms: C_38  and  C_39
REMARK   21  A    between atoms: C_39  and  C_40
REMARK   22  A    between atoms: C_40  and  C_41
REMARK   23  A    between atoms: C_40  and  C_42
REMARK   24  A    between atoms: C_43  and  C_44
REMARK   25  A    between atoms: C_43  and  C_45
REMARK   26  A    between atoms: C_45  and  C_46
REMARK   27  A    between atoms: C_45  and  O_47
REMARK                            x       y       z     vdW  Elec       q    Type
REMARK                         _______ _______ _______ _____ _____    ______ ____
ROOT
ATOM      1  C   UNL     1     146.751 167.085 189.693  0.00  0.00    -0.035 C 
ATOM      2  H   UNL     1     146.388 166.227 189.116  0.00  0.00    +0.028 HD
ATOM      3  H   UNL     1     146.016 167.885 189.561  0.00  0.00    +0.028 HD
ENDROOT
BRANCH   1   4
ATOM      4  C   UNL     1     148.088 167.547 189.111  0.00  0.00    +0.012 C 
ATOM      5  H   UNL     1     148.211 167.148 188.099  0.00  0.00    +0.046 HD
ATOM      6  H   UNL     1     148.125 168.640 189.047  0.00  0.00    +0.046 HD
BRANCH   4   9
ATOM      7  C   UNL     1     150.277 166.421 189.361  0.00  0.00    +0.218 C 
ATOM      8  O   UNL     1     150.348 166.149 188.162  0.00  0.00    -0.275 OA
ATOM      9  N   UNL     1     149.220 167.123 189.909  0.00  0.00    -0.315 N 
ATOM     10  H   UNL     1     149.203 167.313 190.906  0.00  0.00    +0.149 HD
BRANCH   7  11
ATOM     11  C   UNL     1     151.307 165.975 190.398  0.00  0.00    +0.060 C 
ATOM     12  H   UNL     1     150.743 165.644 191.282  0.00  0.00    +0.042 HD
BRANCH  11  13
ATOM     13  C   UNL     1     152.059 164.784 189.799  0.00  0.00    -0.052 C 
ATOM     14  H   UNL     1     151.804 163.850 190.315  0.00  0.00    +0.024 HD
ATOM     15  H   UNL     1     151.853 164.671 188.735  0.00  0.00    +0.024 HD
ATOM     16  H   UNL     1     153.142 164.900 189.883  0.00  0.00    +0.024 HD
ENDBRANCH  11  13
BRANCH  11  17
ATOM     17  C   UNL     1     152.236 167.142 190.808  0.00  0.00    +0.081 C 
ATOM     18  H   UNL     1     153.285 166.830 190.769  0.00  0.00    +0.062 HD
BRANCH  17  19
ATOM     19  C   UNL     1     151.947 167.747 192.198  0.00  0.00    +0.038 C 
ATOM     20  H   UNL     1     151.093 167.224 192.650  0.00  0.00    +0.049 HD
ATOM     21  H   UNL     1     152.796 167.545 192.868  0.00  0.00    +0.049 HD
BRANCH  19  24
ATOM     22  C   UNL     1     150.290 169.570 192.309  0.00  0.00    +0.216 C 
ATOM     23  O   UNL     1     149.345 168.795 192.420  0.00  0.00    -0.276 OA
ATOM     24  N   UNL     1     151.600 169.156 192.209  0.00  0.00    -0.313 N 
ATOM     25  H   UNL     1     152.329 169.840 192.048  0.00  0.00    +0.149 HD
BRANCH  22  26
ATOM     26  C   UNL     1     150.120 171.073 192.258  0.00  0.00    +0.050 C 
ATOM     27  H   UNL     1     150.701 171.442 191.403  0.00  0.00    +0.038 HD
ATOM     28  H   UNL     1     150.559 171.545 193.145  0.00  0.00    +0.038 HD
BRANCH  26  33
ATOM     29  C   UNL     1     147.063 171.934 190.301  0.00  0.00    +0.066 C 
ATOM     30  C   UNL     1     146.138 172.192 191.494  0.00  0.00    -0.026 C 
ATOM     31  C   UNL     1     146.783 173.134 192.507  0.00  0.00    -0.046 C 
ATOM     32  C   UNL     1     148.287 172.843 192.715  0.00  0.00    -0.017 C 
ATOM     33  C   UNL     1     148.654 171.480 192.080  0.00  0.00    +0.070 C 
ATOM     34  O   UNL     1     148.380 171.493 190.668  0.00  0.00    -0.372 OA
ATOM     35  H   UNL     1     147.207 172.885 189.772  0.00  0.00    +0.060 HD
ATOM     36  H   UNL     1     145.180 172.608 191.168  0.00  0.00    +0.029 HD
ATOM     37  H   UNL     1     145.898 171.246 191.995  0.00  0.00    +0.029 HD
ATOM     38  H   UNL     1     146.620 174.172 192.187  0.00  0.00    +0.027 HD
ATOM     39  H   UNL     1     146.252 173.025 193.466  0.00  0.00    +0.027 HD
ATOM     40  H   UNL     1     148.466 172.802 193.797  0.00  0.00    +0.032 HD
ATOM     41  H   UNL     1     148.037 170.688 192.527  0.00  0.00    +0.060 HD
BRANCH  32  42
ATOM     42  C   UNL     1     149.118 174.009 192.165  0.00  0.00    -0.060 C 
ATOM     43  H   UNL     1     149.581 174.589 192.968  0.00  0.00    +0.023 HD
ATOM     44  H   UNL     1     149.916 173.661 191.503  0.00  0.00    +0.023 HD
ATOM     45  H   UNL     1     148.493 174.707 191.599  0.00  0.00    +0.023 HD
ENDBRANCH  32  42
BRANCH  29  46
ATOM     46  C   UNL     1     146.488 170.904 189.333  0.00  0.00    +0.036 C 
ATOM     47  H   UNL     1     145.757 170.262 189.839  0.00  0.00    +0.037 HD
ATOM     48  H   UNL     1     147.259 170.205 188.984  0.00  0.00    +0.037 HD
BRANCH  46  49
ATOM     49  C   UNL     1     145.811 171.565 188.154  0.00  0.00    +0.158 C 
ATOM     50  O   UNL     1     146.026 172.745 187.879  0.00  0.00    -0.293 OA
BRANCH  49  52
ATOM     51  C   UNL     1     143.722 171.237 186.784  0.00  0.00    -0.084 C 
ATOM     52  C   UNL     1     144.894 170.796 187.271  0.00  0.00    -0.023 C 
ATOM     53  H   UNL     1     143.341 172.229 187.016  0.00  0.00    +0.057 HD
ATOM     54  H   UNL     1     145.261 169.802 187.022  0.00  0.00    +0.065 HD
BRANCH  51  55
ATOM     55  C   UNL     1     142.849 170.403 185.902  0.00  0.00    -0.046 C 
ATOM     56  H   UNL     1     142.474 171.010 185.076  0.00  0.00    +0.027 HD
ATOM     57  H   UNL     1     141.998 170.022 186.477  0.00  0.00    +0.027 HD
ATOM     58  H   UNL     1     143.386 169.549 185.479  0.00  0.00    +0.027 HD
ENDBRANCH  51  55
ENDBRANCH  49  52
ENDBRANCH  46  49
ENDBRANCH  29  46
ENDBRANCH  26  33
ENDBRANCH  22  26
ENDBRANCH  19  24
ENDBRANCH  17  19
BRANCH  17  59
ATOM     59  O   UNL     1     152.090 168.233 189.877  0.00  0.00    -0.390 OA
ATOM     60  H   UNL     1     152.805 168.186 189.220  0.00  0.00    +0.210 HD
ENDBRANCH  17  59
ENDBRANCH  11  17
ENDBRANCH   7  11
ENDBRANCH   4   9
ENDBRANCH   1   4
BRANCH   1  61
ATOM     61  C   UNL     1     146.842 166.722 191.182  0.00  0.00    -0.025 C 
ATOM     62  H   UNL     1     147.576 167.380 191.661  0.00  0.00    +0.029 HD
ATOM     63  H   UNL     1     147.215 165.695 191.281  0.00  0.00    +0.029 HD
BRANCH  61  64
ATOM     64  C   UNL     1     145.479 166.825 191.884  0.00  0.00    +0.065 C 
ATOM     65  C   UNL     1     145.357 165.866 193.090  0.00  0.00    -0.017 C 
ATOM     66  C   UNL     1     143.921 165.876 193.639  0.00  0.00    -0.043 C 
ATOM     67  C   UNL     1     142.907 165.657 192.517  0.00  0.00    +0.002 C 
ATOM     68  C   UNL     1     143.134 166.643 191.366  0.00  0.00    +0.171 C 
ATOM     69  O   UNL     1     144.481 166.507 190.908  0.00  0.00    -0.345 OA
ATOM     70  C   UNL     1     142.213 166.288 190.190  0.00  0.00    +0.002 C 
ATOM     71  C   UNL     1     142.408 167.259 189.020  0.00  0.00    -0.046 C 
ATOM     72  C   UNL     1     142.781 168.660 189.500  0.00  0.00    -0.026 C 
ATOM     73  C   UNL     1     142.301 168.888 190.932  0.00  0.00    +0.062 C 
ATOM     74  O   UNL     1     142.889 167.967 191.858  0.00  0.00    -0.345 OA
ATOM     75  H   UNL     1     145.348 167.860 192.213  0.00  0.00    +0.060 HD
ATOM     76  H   UNL     1     145.568 164.847 192.745  0.00  0.00    +0.032 HD
ATOM     77  H   UNL     1     143.799 165.094 194.396  0.00  0.00    +0.027 HD
ATOM     78  H   UNL     1     143.718 166.832 194.141  0.00  0.00    +0.027 HD
ATOM     79  H   UNL     1     141.895 165.765 192.921  0.00  0.00    +0.032 HD
ATOM     80  H   UNL     1     143.020 164.625 192.158  0.00  0.00    +0.032 HD
ATOM     81  H   UNL     1     141.166 166.342 190.518  0.00  0.00    +0.032 HD
ATOM     82  H   UNL     1     142.396 165.266 189.832  0.00  0.00    +0.032 HD
ATOM     83  H   UNL     1     143.190 166.894 188.342  0.00  0.00    +0.027 HD
ATOM     84  H   UNL     1     141.485 167.292 188.427  0.00  0.00    +0.027 HD
ATOM     85  H   UNL     1     143.872 168.755 189.452  0.00  0.00    +0.029 HD
ATOM     86  H   UNL     1     142.372 169.409 188.813  0.00  0.00    +0.029 HD
ATOM     87  H   UNL     1     141.213 168.728 190.967  0.00  0.00    +0.060 HD
BRANCH  65  88
ATOM     88  C   UNL     1     146.337 166.203 194.216  0.00  0.00    -0.060 C 
ATOM     89  H   UNL     1     147.155 166.828 193.850  0.00  0.00    +0.023 HD
ATOM     90  H   UNL     1     146.776 165.295 194.643  0.00  0.00    +0.023 HD
ATOM     91  H   UNL     1     145.839 166.753 195.025  0.00  0.00    +0.023 HD
ENDBRANCH  65  88
BRANCH  73  92
ATOM     92  C   UNL     1     142.558 170.313 191.447  0.00  0.00    -0.026 C 
ATOM     93  H   UNL     1     143.433 170.274 192.099  0.00  0.00    +0.029 HD
ATOM     94  H   UNL     1     141.707 170.623 192.065  0.00  0.00    +0.029 HD
BRANCH  92  95
ATOM     95  C   UNL     1     142.798 171.354 190.343  0.00  0.00    -0.045 C 
ATOM     96  H   UNL     1     142.540 170.903 189.375  0.00  0.00    +0.027 HD
ATOM     97  H   UNL     1     143.864 171.592 190.303  0.00  0.00    +0.027 HD
BRANCH  95  98
ATOM     98  C   UNL     1     142.019 172.680 190.466  0.00  0.00    -0.025 C 
ATOM     99  H   UNL     1     141.063 172.415 190.929  0.00  0.00    +0.034 HD
BRANCH  98 100
ATOM    100  C   UNL     1     141.688 173.291 189.105  0.00  0.00    -0.059 C 
ATOM    101  H   UNL     1     141.587 174.379 189.189  0.00  0.00    +0.024 HD
ATOM    102  H   UNL     1     140.743 172.900 188.720  0.00  0.00    +0.024 HD
ATOM    103  H   UNL     1     142.465 173.094 188.360  0.00  0.00    +0.024 HD
ENDBRANCH  98 100
BRANCH  98 104
ATOM    104  C   UNL     1     142.754 173.697 191.318  0.00  0.00    -0.080 C 
ATOM    105  C   UNL     1     142.394 174.194 192.522  0.00  0.00    -0.048 C 
ATOM    106  H   UNL     1     143.673 174.053 190.860  0.00  0.00    +0.058 HD
BRANCH 105 107
ATOM    107  C   UNL     1     141.115 173.822 193.241  0.00  0.00    -0.041 C 
ATOM    108  H   UNL     1     140.380 174.626 193.272  0.00  0.00    +0.028 HD
ATOM    109  H   UNL     1     140.646 172.957 192.758  0.00  0.00    +0.028 HD
ATOM    110  H   UNL     1     141.329 173.555 194.282  0.00  0.00    +0.028 HD
ENDBRANCH 105 107
BRANCH 105 111
ATOM    111  C   UNL     1     143.226 175.209 193.295  0.00  0.00    +0.073 C 
ATOM    112  H   UNL     1     144.192 174.752 193.538  0.00  0.00    +0.064 HD
BRANCH 111 113
ATOM    113  C   UNL     1     142.641 175.769 194.593  0.00  0.00    -0.035 C 
ATOM    114  H   UNL     1     143.352 175.691 195.421  0.00  0.00    +0.026 HD
ATOM    115  H   UNL     1     142.381 176.827 194.454  0.00  0.00    +0.026 HD
ATOM    116  H   UNL     1     141.714 175.255 194.866  0.00  0.00    +0.026 HD
ENDBRANCH 111 113
BRANCH 111 117
ATOM    117  O   UNL     1     143.490 176.314 192.432  0.00  0.00    -0.388 OA
ATOM    118  H   UNL     1     144.252 176.065 191.882  0.00  0.00    +0.210 HD
ENDBRANCH 111 117
ENDBRANCH 105 111
ENDBRANCH  98 104
ENDBRANCH  95  98
ENDBRANCH  92  95
ENDBRANCH  73  92
ENDBRANCH  61  64
ENDBRANCH   1  61
TORSDOF 27
ENDMDL
MODEL 2
REMARK VINA RESULT:      -6.1      2.325      5.788
REMARK  Name = Bistramide A_conf3
REMARK  27 active torsions:
REMARK  status: ('A' for Active; 'I' for Inactive)
REMARK    1  A    between atoms: C_1  and  C_2
REMARK    2  A    between atoms: C_3  and  C_4
REMARK    3  A    between atoms: C_4  and  C_6
REMARK    4  A    between atoms: C_6  and  C_7
REMARK    5  A    between atoms: C_10  and  C_50
REMARK    6  A    between atoms: C_11  and  C_13
REMARK    7  A    between atoms: C_13  and  C_14
REMARK    8  A    between atoms: N_16  and  C_17
REMARK    9  A    between atoms: C_17  and  C_18
REMARK   10  A    between atoms: C_18  and  C_19
REMARK   11  A    between atoms: C_18  and  O_49
REMARK   12  A    between atoms: C_19  and  C_20
REMARK   13  A    between atoms: C_19  and  C_21
REMARK   14  A    between atoms: N_23  and  C_24
REMARK   15  A    between atoms: C_24  and  C_25
REMARK   16  A    between atoms: C_25  and  C_26
REMARK   17  A    between atoms: C_26  and  C_27
REMARK   18  A    between atoms: C_28  and  C_48
REMARK   19  A    between atoms: C_36  and  C_38
REMARK   20  A    between atoms: C_38  and  C_39
REMARK   21  A    between atoms: C_39  and  C_40
REMARK   22  A    between atoms: C_40  and  C_41
REMARK   23  A    between atoms: C_40  and  C_42
REMARK   24  A    between atoms: C_43  and  C_44
REMARK   25  A    between atoms: C_43  and  C_45
REMARK   26  A    between atoms: C_45  and  C_46
REMARK   27  A    between atoms: C_45  and  O_47
REMARK                            x       y       z     vdW  Elec       q    Type
REMARK                         _______ _______ _______ _____ _____    ______ ____
ROOT
ATOM      1  C   UNL     1     147.148 166.841 189.665  0.00  0.00    -0.035 C 
ATOM      2  H   UNL     1     147.700 166.296 188.891  0.00  0.00    +0.028 HD
ATOM      3  H   UNL     1     146.126 166.964 189.292  0.00  0.00    +0.028 HD
ENDROOT
BRANCH   1   4
ATOM      4  C   UNL     1     147.775 168.224 189.844  0.00  0.00    +0.012 C 
ATOM      5  H   UNL     1     147.632 168.818 188.936  0.00  0.00    +0.046 HD
ATOM      6  H   UNL     1     147.299 168.760 190.673  0.00  0.00    +0.046 HD
BRANCH   4   9
ATOM      7  C   UNL     1     149.710 168.554 191.350  0.00  0.00    +0.218 C 
ATOM      8  O   UNL     1     149.004 168.939 192.281  0.00  0.00    -0.275 OA
ATOM      9  N   UNL     1     149.194 168.160 190.129  0.00  0.00    -0.315 N 
ATOM     10  H   UNL     1     149.820 167.860 189.389  0.00  0.00    +0.149 HD
BRANCH   7  11
ATOM     11  C   UNL     1     151.237 168.513 191.399  0.00  0.00    +0.060 C 
ATOM     12  H   UNL     1     151.589 168.583 190.360  0.00  0.00    +0.042 HD
BRANCH  11  13
ATOM     13  C   UNL     1     151.693 169.751 192.175  0.00  0.00    -0.052 C 
ATOM     14  H   UNL     1     152.621 170.162 191.761  0.00  0.00    +0.024 HD
ATOM     15  H   UNL     1     150.929 170.528 192.180  0.00  0.00    +0.024 HD
ATOM     16  H   UNL     1     151.894 169.524 193.225  0.00  0.00    +0.024 HD
ENDBRANCH  11  13
BRANCH  11  17
ATOM     17  C   UNL     1     151.747 167.185 192.008  0.00  0.00    +0.081 C 
ATOM     18  H   UNL     1     152.092 167.342 193.036  0.00  0.00    +0.062 HD
BRANCH  17  19
ATOM     19  C   UNL     1     152.865 166.487 191.207  0.00  0.00    +0.038 C 
ATOM     20  H   UNL     1     153.837 166.718 191.666  0.00  0.00    +0.049 HD
ATOM     21  H   UNL     1     152.755 165.397 191.300  0.00  0.00    +0.049 HD
BRANCH  19  24
ATOM     22  C   UNL     1     154.102 166.577 189.075  0.00  0.00    +0.216 C 
ATOM     23  O   UNL     1     155.052 165.943 189.522  0.00  0.00    -0.276 OA
ATOM     24  N   UNL     1     152.980 166.882 189.816  0.00  0.00    -0.313 N 
ATOM     25  H   UNL     1     152.260 167.469 189.414  0.00  0.00    +0.149 HD
BRANCH  22  26
ATOM     26  C   UNL     1     154.060 167.109 187.659  0.00  0.00    +0.050 C 
ATOM     27  H   UNL     1     155.095 167.177 187.301  0.00  0.00    +0.038 HD
ATOM     28  H   UNL     1     153.669 168.133 187.639  0.00  0.00    +0.038 HD
BRANCH  26  33
ATOM     29  C   UNL     1     152.050 164.090 186.789  0.00  0.00    +0.066 C 
ATOM     30  C   UNL     1     151.845 164.416 185.306  0.00  0.00    -0.026 C 
ATOM     31  C   UNL     1     153.165 164.775 184.627  0.00  0.00    -0.046 C 
ATOM     32  C   UNL     1     154.072 165.654 185.518  0.00  0.00    -0.017 C 
ATOM     33  C   UNL     1     153.265 166.192 186.724  0.00  0.00    +0.070 C 
ATOM     34  O   UNL     1     152.760 165.104 187.517  0.00  0.00    -0.372 OA
ATOM     35  H   UNL     1     152.672 163.189 186.855  0.00  0.00    +0.060 HD
ATOM     36  H   UNL     1     151.380 163.578 184.778  0.00  0.00    +0.029 HD
ATOM     37  H   UNL     1     151.153 165.260 185.199  0.00  0.00    +0.029 HD
ATOM     38  H   UNL     1     153.678 163.851 184.328  0.00  0.00    +0.027 HD
ATOM     39  H   UNL     1     152.937 165.311 183.692  0.00  0.00    +0.027 HD
ATOM     40  H   UNL     1     154.416 166.497 184.904  0.00  0.00    +0.032 HD
ATOM     41  H   UNL     1     152.399 166.764 186.362  0.00  0.00    +0.060 HD
BRANCH  32  42
ATOM     42  C   UNL     1     155.317 164.859 185.930  0.00  0.00    -0.060 C 
ATOM     43  H   UNL     1     156.205 165.188 185.384  0.00  0.00    +0.023 HD
ATOM     44  H   UNL     1     155.527 164.960 186.999  0.00  0.00    +0.023 HD
ATOM     45  H   UNL     1     155.195 163.793 185.711  0.00  0.00    +0.023 HD
ENDBRANCH  32  42
BRANCH  29  46
ATOM     46  C   UNL     1     150.731 163.843 187.515  0.00  0.00    +0.036 C 
ATOM     47  H   UNL     1     150.877 163.162 188.363  0.00  0.00    +0.037 HD
ATOM     48  H   UNL     1     150.011 163.319 186.874  0.00  0.00    +0.037 HD
BRANCH  46  49
ATOM     49  C   UNL     1     150.130 165.129 188.034  0.00  0.00    +0.158 C 
ATOM     50  O   UNL     1     150.300 165.482 189.202  0.00  0.00    -0.293 OA
BRANCH  49  52
ATOM     51  C   UNL     1     149.703 167.266 186.770  0.00  0.00    -0.084 C 
ATOM     52  C   UNL     1     149.350 166.023 187.139  0.00  0.00    -0.023 C 
ATOM     53  H   UNL     1     150.624 167.729 187.119  0.00  0.00    +0.057 HD
ATOM     54  H   UNL     1     148.427 165.576 186.773  0.00  0.00    +0.065 HD
BRANCH  51  55
ATOM     55  C   UNL     1     148.862 168.110 185.867  0.00  0.00    -0.046 C 
ATOM     56  H   UNL     1     148.928 167.735 184.844  0.00  0.00    +0.027 HD
ATOM     57  H   UNL     1     149.221 169.145 185.888  0.00  0.00    +0.027 HD
ATOM     58  H   UNL     1     147.809 168.107 186.162  0.00  0.00    +0.027 HD
ENDBRANCH  51  55
ENDBRANCH  49  52
ENDBRANCH  46  49
ENDBRANCH  29  46
ENDBRANCH  26  33
ENDBRANCH  22  26
ENDBRANCH  19  24
ENDBRANCH  17  19
BRANCH  17  59
ATOM     59  O   UNL     1     150.668 166.232 192.072  0.00  0.00    -0.390 OA
ATOM     60  H   UNL     1     151.040 165.336 192.148  0.00  0.00    +0.210 HD
ENDBRANCH  17  59
ENDBRANCH  11  17
ENDBRANCH   7  11
ENDBRANCH   4   9
ENDBRANCH   1   4
BRANCH   1  61
ATOM     61  C   UNL     1     147.117 166.026 190.967  0.00  0.00    -0.025 C 
ATOM     62  H   UNL     1     148.076 166.150 191.482  0.00  0.00    +0.029 HD
ATOM     63  H   UNL     1     147.014 164.961 190.723  0.00  0.00    +0.029 HD
BRANCH  61  64
ATOM     64  C   UNL     1     145.951 166.441 191.877  0.00  0.00    +0.065 C 
ATOM     65  C   UNL     1     146.091 165.887 193.313  0.00  0.00    -0.017 C 
ATOM     66  C   UNL     1     144.818 166.175 194.126  0.00  0.00    -0.043 C 
ATOM     67  C   UNL     1     143.572 165.726 193.364  0.00  0.00    +0.002 C 
ATOM     68  C   UNL     1     143.547 166.315 191.948  0.00  0.00    +0.171 C 
ATOM     69  O   UNL     1     144.752 165.939 191.277  0.00  0.00    -0.345 OA
ATOM     70  C   UNL     1     142.377 165.713 191.157  0.00  0.00    +0.002 C 
ATOM     71  C   UNL     1     142.316 166.283 189.736  0.00  0.00    -0.046 C 
ATOM     72  C   UNL     1     142.811 167.727 189.681  0.00  0.00    -0.026 C 
ATOM     73  C   UNL     1     142.674 168.399 191.046  0.00  0.00    +0.062 C 
ATOM     74  O   UNL     1     143.443 167.740 192.059  0.00  0.00    -0.345 OA
ATOM     75  H   UNL     1     145.915 167.535 191.899  0.00  0.00    +0.060 HD
ATOM     76  H   UNL     1     146.201 164.797 193.254  0.00  0.00    +0.032 HD
ATOM     77  H   UNL     1     144.859 165.659 195.090  0.00  0.00    +0.027 HD
ATOM     78  H   UNL     1     144.750 167.249 194.348  0.00  0.00    +0.027 HD
ATOM     79  H   UNL     1     142.680 166.031 193.922  0.00  0.00    +0.032 HD
ATOM     80  H   UNL     1     143.583 164.629 193.316  0.00  0.00    +0.032 HD
ATOM     81  H   UNL     1     141.433 165.947 191.669  0.00  0.00    +0.032 HD
ATOM     82  H   UNL     1     142.457 164.619 191.093  0.00  0.00    +0.032 HD
ATOM     83  H   UNL     1     142.917 165.674 189.049  0.00  0.00    +0.027 HD
ATOM     84  H   UNL     1     141.283 166.221 189.371  0.00  0.00    +0.027 HD
ATOM     85  H   UNL     1     143.864 167.712 189.376  0.00  0.00    +0.029 HD
ATOM     86  H   UNL     1     142.270 168.276 188.904  0.00  0.00    +0.029 HD
ATOM     87  H   UNL     1     141.620 168.348 191.358  0.00  0.00    +0.060 HD
BRANCH  65  88
ATOM     88  C   UNL     1     147.307 166.452 194.051  0.00  0.00    -0.060 C 
ATOM     89  H   UNL     1     147.214 167.532 194.188  0.00  0.00    +0.023 HD
ATOM     90  H   UNL     1     148.231 166.264 193.492  0.00  0.00    +0.023 HD
ATOM     91  H   UNL     1     147.412 166.002 195.046  0.00  0.00    +0.023 HD
ENDBRANCH  65  88
BRANCH  73  92
ATOM     92  C   UNL     1     143.065 169.886 191.041  0.00  0.00    -0.026 C 
ATOM     93  H   UNL     1     143.164 170.203 192.081  0.00  0.00    +0.029 HD
ATOM     94  H   UNL     1     142.244 170.465 190.603  0.00  0.00    +0.029 HD
BRANCH  92  95
ATOM     95  C   UNL     1     144.370 170.197 190.293  0.00  0.00    -0.045 C 
ATOM     96  H   UNL     1     144.241 169.924 189.236  0.00  0.00    +0.027 HD
ATOM     97  H   UNL     1     145.166 169.559 190.686  0.00  0.00    +0.027 HD
BRANCH  95  98
ATOM     98  C   UNL     1     144.862 171.659 190.345  0.00  0.00    -0.025 C 
ATOM     99  H   UNL     1     144.384 172.096 191.228  0.00  0.00    +0.034 HD
BRANCH  98 100
ATOM    100  C   UNL     1     144.388 172.476 189.144  0.00  0.00    -0.059 C 
ATOM    101  H   UNL     1     144.842 172.096 188.222  0.00  0.00    +0.024 HD
ATOM    102  H   UNL     1     144.677 173.526 189.247  0.00  0.00    +0.024 HD
ATOM    103  H   UNL     1     143.303 172.434 189.013  0.00  0.00    +0.024 HD
ENDBRANCH  98 100
BRANCH  98 104
ATOM    104  C   UNL     1     146.371 171.749 190.463  0.00  0.00    -0.080 C 
ATOM    105  C   UNL     1     147.099 172.410 191.389  0.00  0.00    -0.048 C 
ATOM    106  H   UNL     1     146.893 171.209 189.677  0.00  0.00    +0.058 HD
BRANCH 105 107
ATOM    107  C   UNL     1     146.494 173.241 192.501  0.00  0.00    -0.041 C 
ATOM    108  H   UNL     1     146.320 174.282 192.226  0.00  0.00    +0.028 HD
ATOM    109  H   UNL     1     145.536 172.813 192.818  0.00  0.00    +0.028 HD
ATOM    110  H   UNL     1     147.163 173.257 193.369  0.00  0.00    +0.028 HD
ENDBRANCH 105 107
BRANCH 105 111
ATOM    111  C   UNL     1     148.621 172.418 191.414  0.00  0.00    +0.073 C 
ATOM    112  H   UNL     1     148.980 171.475 190.988  0.00  0.00    +0.064 HD
BRANCH 111 113
ATOM    113  C   UNL     1     149.311 172.605 192.767  0.00  0.00    -0.035 C 
ATOM    114  H   UNL     1     149.621 173.643 192.921  0.00  0.00    +0.026 HD
ATOM    115  H   UNL     1     148.622 172.322 193.575  0.00  0.00    +0.026 HD
ATOM    116  H   UNL     1     150.184 171.951 192.863  0.00  0.00    +0.026 HD
ENDBRANCH 111 113
BRANCH 111 117
ATOM    117  O   UNL     1     149.073 173.465 190.556  0.00  0.00    -0.388 OA
ATOM    118  H   UNL     1     149.801 173.099 190.026  0.00  0.00    +0.210 HD
ENDBRANCH 111 117
ENDBRANCH 105 111
ENDBRANCH  98 104
ENDBRANCH  95  98
ENDBRANCH  92  95
ENDBRANCH  73  92
ENDBRANCH  61  64
ENDBRANCH   1  61
TORSDOF 27
ENDMDL
MODEL 3
REMARK VINA RESULT:      -6.0      3.474      9.439
REMARK  Name = Bistramide A_conf3
REMARK  27 active torsions:
REMARK  status: ('A' for Active; 'I' for Inactive)
REMARK    1  A    between atoms: C_1  and  C_2
REMARK    2  A    between atoms: C_3  and  C_4
REMARK    3  A    between atoms: C_4  and  C_6
REMARK    4  A    between atoms: C_6  and  C_7
REMARK    5  A    between atoms: C_10  and  C_50
REMARK    6  A    between atoms: C_11  and  C_13
REMARK    7  A    between atoms: C_13  and  C_14
REMARK    8  A    between atoms: N_16  and  C_17
REMARK    9  A    between atoms: C_17  and  C_18
REMARK   10  A    between atoms: C_18  and  C_19
REMARK   11  A    between atoms: C_18  and  O_49
REMARK   12  A    between atoms: C_19  and  C_20
REMARK   13  A    between atoms: C_19  and  C_21
REMARK   14  A    between atoms: N_23  and  C_24
REMARK   15  A    between atoms: C_24  and  C_25
REMARK   16  A    between atoms: C_25  and  C_26
REMARK   17  A    between atoms: C_26  and  C_27
REMARK   18  A    between atoms: C_28  and  C_48
REMARK   19  A    between atoms: C_36  and  C_38
REMARK   20  A    between atoms: C_38  and  C_39
REMARK   21  A    between atoms: C_39  and  C_40
REMARK   22  A    between atoms: C_40  and  C_41
REMARK   23  A    between atoms: C_40  and  C_42
REMARK   24  A    between atoms: C_43  and  C_44
REMARK   25  A    between atoms: C_43  and  C_45
REMARK   26  A    between atoms: C_45  and  C_46
REMARK   27  A    between atoms: C_45  and  O_47
REMARK                            x       y       z     vdW  Elec       q    Type
REMARK                         _______ _______ _______ _____ _____    ______ ____
ROOT
ATOM      1  C   UNL     1     151.724 164.911 186.216  0.00  0.00    -0.035 C 
ATOM      2  H   UNL     1     151.778 163.819 186.280  0.00  0.00    +0.028 HD
ATOM      3  H   UNL     1     151.665 165.283 187.244  0.00  0.00    +0.028 HD
ENDROOT
BRANCH   1   4
ATOM      4  C   UNL     1     150.444 165.304 185.477  0.00  0.00    +0.012 C 
ATOM      5  H   UNL     1     150.663 165.479 184.419  0.00  0.00    +0.046 HD
ATOM      6  H   UNL     1     149.701 164.501 185.537  0.00  0.00    +0.046 HD
BRANCH   4   9
ATOM      7  C   UNL     1     148.806 167.155 185.364  0.00  0.00    +0.218 C 
ATOM      8  O   UNL     1     148.320 166.748 184.309  0.00  0.00    -0.275 OA
ATOM      9  N   UNL     1     149.832 166.499 186.020  0.00  0.00    -0.315 N 
ATOM     10  H   UNL     1     150.205 166.881 186.882  0.00  0.00    +0.149 HD
BRANCH   7  11
ATOM     11  C   UNL     1     148.385 168.453 186.052  0.00  0.00    +0.060 C 
ATOM     12  H   UNL     1     149.308 168.992 186.306  0.00  0.00    +0.042 HD
BRANCH  11  13
ATOM     13  C   UNL     1     147.588 169.264 185.028  0.00  0.00    -0.052 C 
ATOM     14  H   UNL     1     146.528 169.326 185.304  0.00  0.00    +0.024 HD
ATOM     15  H   UNL     1     147.986 170.273 184.914  0.00  0.00    +0.024 HD
ATOM     16  H   UNL     1     147.625 168.815 184.032  0.00  0.00    +0.024 HD
ENDBRANCH  11  13
BRANCH  11  17
ATOM     17  C   UNL     1     147.599 168.171 187.355  0.00  0.00    +0.081 C 
ATOM     18  H   UNL     1     147.002 167.259 187.254  0.00  0.00    +0.062 HD
BRANCH  17  19
ATOM     19  C   UNL     1     146.682 169.319 187.824  0.00  0.00    +0.038 C 
ATOM     20  H   UNL     1     146.610 170.074 187.028  0.00  0.00    +0.049 HD
ATOM     21  H   UNL     1     145.657 168.939 187.953  0.00  0.00    +0.049 HD
BRANCH  19  24
ATOM     22  C   UNL     1     146.553 171.232 189.376  0.00  0.00    +0.216 C 
ATOM     23  O   UNL     1     145.633 171.757 188.759  0.00  0.00    -0.276 OA
ATOM     24  N   UNL     1     147.125 170.033 189.007  0.00  0.00    -0.313 N 
ATOM     25  H   UNL     1     147.928 169.686 189.515  0.00  0.00    +0.149 HD
BRANCH  22  26
ATOM     26  C   UNL     1     147.176 171.850 190.609  0.00  0.00    +0.050 C 
ATOM     27  H   UNL     1     146.408 171.869 191.393  0.00  0.00    +0.038 HD
ATOM     28  H   UNL     1     147.445 172.896 190.427  0.00  0.00    +0.038 HD
BRANCH  26  33
ATOM     29  C   UNL     1     148.863 168.982 192.296  0.00  0.00    +0.066 C 
ATOM     30  C   UNL     1     150.304 169.458 192.089  0.00  0.00    -0.026 C 
ATOM     31  C   UNL     1     150.479 170.911 192.521  0.00  0.00    -0.046 C 
ATOM     32  C   UNL     1     149.281 171.800 192.116  0.00  0.00    -0.017 C 
ATOM     33  C   UNL     1     148.380 171.045 191.108  0.00  0.00    +0.070 C 
ATOM     34  O   UNL     1     147.874 169.834 191.696  0.00  0.00    -0.372 OA
ATOM     35  H   UNL     1     148.652 168.998 193.373  0.00  0.00    +0.060 HD
ATOM     36  H   UNL     1     151.011 168.827 192.637  0.00  0.00    +0.029 HD
ATOM     37  H   UNL     1     150.581 169.369 191.031  0.00  0.00    +0.029 HD
ATOM     38  H   UNL     1     150.649 170.946 193.606  0.00  0.00    +0.027 HD
ATOM     39  H   UNL     1     151.399 171.300 192.058  0.00  0.00    +0.027 HD
ATOM     40  H   UNL     1     149.688 172.701 191.637  0.00  0.00    +0.032 HD
ATOM     41  H   UNL     1     148.973 170.760 190.227  0.00  0.00    +0.060 HD
BRANCH  32  42
ATOM     42  C   UNL     1     148.530 172.258 193.372  0.00  0.00    -0.060 C 
ATOM     43  H   UNL     1     147.553 171.774 193.458  0.00  0.00    +0.023 HD
ATOM     44  H   UNL     1     149.092 172.036 194.284  0.00  0.00    +0.023 HD
ATOM     45  H   UNL     1     148.340 173.336 193.347  0.00  0.00    +0.023 HD
ENDBRANCH  32  42
BRANCH  29  46
ATOM     46  C   UNL     1     148.636 167.570 191.763  0.00  0.00    +0.036 C 
ATOM     47  H   UNL     1     149.125 166.829 192.407  0.00  0.00    +0.037 HD
ATOM     48  H   UNL     1     149.113 167.428 190.785  0.00  0.00    +0.037 HD
BRANCH  46  49
ATOM     49  C   UNL     1     147.164 167.235 191.680  0.00  0.00    +0.158 C 
ATOM     50  O   UNL     1     146.575 167.232 190.599  0.00  0.00    -0.293 OA
BRANCH  49  52
ATOM     51  C   UNL     1     145.581 165.802 193.016  0.00  0.00    -0.084 C 
ATOM     52  C   UNL     1     146.396 166.863 192.898  0.00  0.00    -0.023 C 
ATOM     53  H   UNL     1     145.413 165.112 192.192  0.00  0.00    +0.057 HD
ATOM     54  H   UNL     1     146.556 167.538 193.736  0.00  0.00    +0.065 HD
BRANCH  51  55
ATOM     55  C   UNL     1     144.836 165.492 194.275  0.00  0.00    -0.046 C 
ATOM     56  H   UNL     1     144.305 164.545 194.165  0.00  0.00    +0.027 HD
ATOM     57  H   UNL     1     144.107 166.284 194.479  0.00  0.00    +0.027 HD
ATOM     58  H   UNL     1     145.502 165.410 195.138  0.00  0.00    +0.027 HD
ENDBRANCH  51  55
ENDBRANCH  49  52
ENDBRANCH  46  49
ENDBRANCH  29  46
ENDBRANCH  26  33
ENDBRANCH  22  26
ENDBRANCH  19  24
ENDBRANCH  17  19
BRANCH  17  59
ATOM     59  O   UNL     1     148.520 167.949 188.441  0.00  0.00    -0.390 OA
ATOM     60  H   UNL     1     148.017 167.845 189.267  0.00  0.00    +0.210 HD
ENDBRANCH  17  59
ENDBRANCH  11  17
ENDBRANCH   7  11
ENDBRANCH   4   9
ENDBRANCH   1   4
BRANCH   1  61
ATOM     61  C   UNL     1     152.992 165.466 185.549  0.00  0.00    -0.025 C 
ATOM     62  H   UNL     1     152.765 166.450 185.126  0.00  0.00    +0.029 HD
ATOM     63  H   UNL     1     153.277 164.812 184.715  0.00  0.00    +0.029 HD
BRANCH  61  64
ATOM     64  C   UNL     1     154.168 165.554 186.534  0.00  0.00    +0.065 C 
ATOM     65  C   UNL     1     155.488 165.973 185.849  0.00  0.00    -0.017 C 
ATOM     66  C   UNL     1     156.662 165.869 186.835  0.00  0.00    -0.043 C 
ATOM     67  C   UNL     1     156.679 164.502 187.519  0.00  0.00    +0.002 C 
ATOM     68  C   UNL     1     155.316 164.179 188.143  0.00  0.00    +0.171 C 
ATOM     69  O   UNL     1     154.318 164.258 187.124  0.00  0.00    -0.345 OA
ATOM     70  C   UNL     1     155.318 162.737 188.671  0.00  0.00    +0.002 C 
ATOM     71  C   UNL     1     153.971 162.379 189.310  0.00  0.00    -0.046 C 
ATOM     72  C   UNL     1     153.310 163.592 189.962  0.00  0.00    -0.026 C 
ATOM     73  C   UNL     1     154.354 164.645 190.329  0.00  0.00    +0.062 C 
ATOM     74  O   UNL     1     155.066 165.131 189.185  0.00  0.00    -0.345 OA
ATOM     75  H   UNL     1     153.902 166.278 187.310  0.00  0.00    +0.060 HD
ATOM     76  H   UNL     1     155.689 165.275 185.027  0.00  0.00    +0.032 HD
ATOM     77  H   UNL     1     157.612 166.025 186.313  0.00  0.00    +0.027 HD
ATOM     78  H   UNL     1     156.587 166.661 187.593  0.00  0.00    +0.027 HD
ATOM     79  H   UNL     1     157.464 164.492 188.283  0.00  0.00    +0.032 HD
ATOM     80  H   UNL     1     156.935 163.750 186.761  0.00  0.00    +0.032 HD
ATOM     81  H   UNL     1     156.105 162.628 189.430  0.00  0.00    +0.032 HD
ATOM     82  H   UNL     1     155.529 162.016 187.869  0.00  0.00    +0.032 HD
ATOM     83  H   UNL     1     153.287 161.961 188.560  0.00  0.00    +0.027 HD
ATOM     84  H   UNL     1     154.128 161.586 190.052  0.00  0.00    +0.027 HD
ATOM     85  H   UNL     1     152.593 164.011 189.247  0.00  0.00    +0.029 HD
ATOM     86  H   UNL     1     152.731 163.275 190.835  0.00  0.00    +0.029 HD
ATOM     87  H   UNL     1     155.097 164.185 190.998  0.00  0.00    +0.060 HD
BRANCH  65  88
ATOM     88  C   UNL     1     155.432 167.389 185.270  0.00  0.00    -0.060 C 
ATOM     89  H   UNL     1     154.498 167.886 185.542  0.00  0.00    +0.023 HD
ATOM     90  H   UNL     1     155.496 167.372 184.176  0.00  0.00    +0.023 HD
ATOM     91  H   UNL     1     156.256 168.007 185.650  0.00  0.00    +0.023 HD
ENDBRANCH  65  88
BRANCH  73  92
ATOM     92  C   UNL     1     153.770 165.854 191.078  0.00  0.00    -0.026 C 
ATOM     93  H   UNL     1     153.505 166.606 190.332  0.00  0.00    +0.029 HD
ATOM     94  H   UNL     1     154.553 166.289 191.710  0.00  0.00    +0.029 HD
BRANCH  92  95
ATOM     95  C   UNL     1     152.536 165.536 191.934  0.00  0.00    -0.045 C 
ATOM     96  H   UNL     1     152.643 164.520 192.339  0.00  0.00    +0.027 HD
ATOM     97  H   UNL     1     151.650 165.525 191.292  0.00  0.00    +0.027 HD
BRANCH  95  98
ATOM     98  C   UNL     1     152.254 166.486 193.116  0.00  0.00    -0.025 C 
ATOM     99  H   UNL     1     151.371 167.063 192.823  0.00  0.00    +0.034 HD
BRANCH  98 100
ATOM    100  C   UNL     1     153.380 167.496 193.334  0.00  0.00    -0.059 C 
ATOM    101  H   UNL     1     154.291 166.985 193.669  0.00  0.00    +0.024 HD
ATOM    102  H   UNL     1     153.110 168.225 194.102  0.00  0.00    +0.024 HD
ATOM    103  H   UNL     1     153.633 168.042 192.421  0.00  0.00    +0.024 HD
ENDBRANCH  98 100
BRANCH  98 104
ATOM    104  C   UNL     1     151.987 165.732 194.405  0.00  0.00    -0.080 C 
ATOM    105  C   UNL     1     150.820 165.609 195.074  0.00  0.00    -0.048 C 
ATOM    106  H   UNL     1     152.875 165.255 194.811  0.00  0.00    +0.058 HD
BRANCH 105 107
ATOM    107  C   UNL     1     149.526 166.267 194.642  0.00  0.00    -0.041 C 
ATOM    108  H   UNL     1     149.661 167.054 193.901  0.00  0.00    +0.028 HD
ATOM    109  H   UNL     1     148.844 165.521 194.220  0.00  0.00    +0.028 HD
ATOM    110  H   UNL     1     149.032 166.731 195.503  0.00  0.00    +0.028 HD
ENDBRANCH 105 107
BRANCH 105 111
ATOM    111  C   UNL     1     150.669 164.808 196.360  0.00  0.00    +0.073 C 
ATOM    112  H   UNL     1     151.209 165.329 197.158  0.00  0.00    +0.064 HD
BRANCH 111 113
ATOM    113  C   UNL     1     151.143 163.353 196.355  0.00  0.00    -0.035 C 
ATOM    114  H   UNL     1     151.088 162.916 195.353  0.00  0.00    +0.026 HD
ATOM    115  H   UNL     1     152.185 163.303 196.701  0.00  0.00    +0.026 HD
ATOM    116  H   UNL     1     150.557 162.740 197.047  0.00  0.00    +0.026 HD
ENDBRANCH 111 113
BRANCH 111 117
ATOM    117  O   UNL     1     149.288 164.806 196.720  0.00  0.00    -0.388 OA
ATOM    118  H   UNL     1     149.004 165.735 196.747  0.00  0.00    +0.210 HD
ENDBRANCH 111 117
ENDBRANCH 105 111
ENDBRANCH  98 104
ENDBRANCH  95  98
ENDBRANCH  92  95
ENDBRANCH  73  92
ENDBRANCH  61  64
ENDBRANCH   1  61
TORSDOF 27
ENDMDL
MODEL 4
REMARK VINA RESULT:      -5.9      3.657      8.464
REMARK  Name = Bistramide A_conf3
REMARK  27 active torsions:
REMARK  status: ('A' for Active; 'I' for Inactive)
REMARK    1  A    between atoms: C_1  and  C_2
REMARK    2  A    between atoms: C_3  and  C_4
REMARK    3  A    between atoms: C_4  and  C_6
REMARK    4  A    between atoms: C_6  and  C_7
REMARK    5  A    between atoms: C_10  and  C_50
REMARK    6  A    between atoms: C_11  and  C_13
REMARK    7  A    between atoms: C_13  and  C_14
REMARK    8  A    between atoms: N_16  and  C_17
REMARK    9  A    between atoms: C_17  and  C_18
REMARK   10  A    between atoms: C_18  and  C_19
REMARK   11  A    between atoms: C_18  and  O_49
REMARK   12  A    between atoms: C_19  and  C_20
REMARK   13  A    between atoms: C_19  and  C_21
REMARK   14  A    between atoms: N_23  and  C_24
REMARK   15  A    between atoms: C_24  and  C_25
REMARK   16  A    between atoms: C_25  and  C_26
REMARK   17  A    between atoms: C_26  and  C_27
REMARK   18  A    between atoms: C_28  and  C_48
REMARK   19  A    between atoms: C_36  and  C_38
REMARK   20  A    between atoms: C_38  and  C_39
REMARK   21  A    between atoms: C_39  and  C_40
REMARK   22  A    between atoms: C_40  and  C_41
REMARK   23  A    between atoms: C_40  and  C_42
REMARK   24  A    between atoms: C_43  and  C_44
REMARK   25  A    between atoms: C_43  and  C_45
REMARK   26  A    between atoms: C_45  and  C_46
REMARK   27  A    between atoms: C_45  and  O_47
REMARK                            x       y       z     vdW  Elec       q    Type
REMARK                         _______ _______ _______ _____ _____    ______ ____
ROOT
ATOM      1  C   UNL     1     146.790 169.645 190.018  0.00  0.00    -0.035 C 
ATOM      2  H   UNL     1     147.039 168.670 190.452  0.00  0.00    +0.028 HD
ATOM      3  H   UNL     1     145.718 169.796 190.183  0.00  0.00    +0.028 HD
ENDROOT
BRANCH   1   4
ATOM      4  C   UNL     1     147.053 169.601 188.512  0.00  0.00    +0.012 C 
ATOM      5  H   UNL     1     146.104 169.636 187.967  0.00  0.00    +0.046 HD
ATOM      6  H   UNL     1     147.651 170.464 188.199  0.00  0.00    +0.046 HD
BRANCH   4   9
ATOM      7  C   UNL     1     147.117 167.319 187.556  0.00  0.00    +0.218 C 
ATOM      8  O   UNL     1     145.906 167.305 187.338  0.00  0.00    -0.275 OA
ATOM      9  N   UNL     1     147.768 168.409 188.105  0.00  0.00    -0.315 N 
ATOM     10  H   UNL     1     148.767 168.367 188.275  0.00  0.00    +0.149 HD
BRANCH   7  11
ATOM     11  C   UNL     1     148.042 166.129 187.305  0.00  0.00    +0.060 C 
ATOM     12  H   UNL     1     148.918 166.266 187.955  0.00  0.00    +0.042 HD
BRANCH  11  13
ATOM     13  C   UNL     1     147.282 164.873 187.734  0.00  0.00    -0.052 C 
ATOM     14  H   UNL     1     147.425 164.662 188.801  0.00  0.00    +0.024 HD
ATOM     15  H   UNL     1     146.215 164.957 187.527  0.00  0.00    +0.024 HD
ATOM     16  H   UNL     1     147.621 163.985 187.194  0.00  0.00    +0.024 HD
ENDBRANCH  11  13
BRANCH  11  17
ATOM     17  C   UNL     1     148.518 166.085 185.833  0.00  0.00    +0.081 C 
ATOM     18  H   UNL     1     147.982 165.307 185.280  0.00  0.00    +0.062 HD
BRANCH  17  19
ATOM     19  C   UNL     1     150.035 165.877 185.644  0.00  0.00    +0.038 C 
ATOM     20  H   UNL     1     150.204 165.188 184.805  0.00  0.00    +0.049 HD
ATOM     21  H   UNL     1     150.499 166.826 185.336  0.00  0.00    +0.049 HD
BRANCH  19  24
ATOM     22  C   UNL     1     150.915 163.939 186.890  0.00  0.00    +0.216 C 
ATOM     23  O   UNL     1     150.529 163.136 186.047  0.00  0.00    -0.276 OA
ATOM     24  N   UNL     1     150.735 165.301 186.777  0.00  0.00    -0.313 N 
ATOM     25  H   UNL     1     151.013 165.906 187.539  0.00  0.00    +0.149 HD
BRANCH  22  26
ATOM     26  C   UNL     1     151.627 163.522 188.159  0.00  0.00    +0.050 C 
ATOM     27  H   UNL     1     152.203 162.616 187.933  0.00  0.00    +0.038 HD
ATOM     28  H   UNL     1     150.906 163.233 188.932  0.00  0.00    +0.038 HD
BRANCH  26  33
ATOM     29  C   UNL     1     154.482 165.907 187.895  0.00  0.00    +0.066 C 
ATOM     30  C   UNL     1     154.378 166.489 189.308  0.00  0.00    -0.026 C 
ATOM     31  C   UNL     1     154.296 165.387 190.360  0.00  0.00    -0.046 C 
ATOM     32  C   UNL     1     153.400 164.208 189.917  0.00  0.00    -0.017 C 
ATOM     33  C   UNL     1     152.580 164.609 188.666  0.00  0.00    +0.070 C 
ATOM     34  O   UNL     1     153.458 164.952 187.579  0.00  0.00    -0.372 OA
ATOM     35  H   UNL     1     155.430 165.358 187.823  0.00  0.00    +0.060 HD
ATOM     36  H   UNL     1     155.228 167.142 189.530  0.00  0.00    +0.029 HD
ATOM     37  H   UNL     1     153.485 167.122 189.389  0.00  0.00    +0.029 HD
ATOM     38  H   UNL     1     155.311 165.044 190.602  0.00  0.00    +0.027 HD
ATOM     39  H   UNL     1     153.894 165.825 191.288  0.00  0.00    +0.027 HD
ATOM     40  H   UNL     1     152.715 163.987 190.746  0.00  0.00    +0.032 HD
ATOM     41  H   UNL     1     151.974 165.498 188.893  0.00  0.00    +0.060 HD
BRANCH  32  42
ATOM     42  C   UNL     1     154.262 162.958 189.699  0.00  0.00    -0.060 C 
ATOM     43  H   UNL     1     155.009 162.840 190.489  0.00  0.00    +0.023 HD
ATOM     44  H   UNL     1     153.657 162.048 189.675  0.00  0.00    +0.023 HD
ATOM     45  H   UNL     1     154.815 163.020 188.756  0.00  0.00    +0.023 HD
ENDBRANCH  32  42
BRANCH  29  46
ATOM     46  C   UNL     1     154.448 166.989 186.818  0.00  0.00    +0.036 C 
ATOM     47  H   UNL     1     154.430 167.987 187.272  0.00  0.00    +0.037 HD
ATOM     48  H   UNL     1     153.521 166.945 186.234  0.00  0.00    +0.037 HD
BRANCH  46  49
ATOM     49  C   UNL     1     155.648 166.902 185.903  0.00  0.00    +0.158 C 
ATOM     50  O   UNL     1     156.473 165.996 186.024  0.00  0.00    -0.293 OA
BRANCH  49  52
ATOM     51  C   UNL     1     156.592 169.000 184.878  0.00  0.00    -0.084 C 
ATOM     52  C   UNL     1     155.845 167.886 184.806  0.00  0.00    -0.023 C 
ATOM     53  H   UNL     1     157.126 169.277 185.785  0.00  0.00    +0.057 HD
ATOM     54  H   UNL     1     155.324 167.624 183.887  0.00  0.00    +0.065 HD
BRANCH  51  55
ATOM     55  C   UNL     1     156.741 169.949 183.732  0.00  0.00    -0.046 C 
ATOM     56  H   UNL     1     155.886 170.626 183.700  0.00  0.00    +0.027 HD
ATOM     57  H   UNL     1     156.784 169.389 182.791  0.00  0.00    +0.027 HD
ATOM     58  H   UNL     1     157.650 170.552 183.812  0.00  0.00    +0.027 HD
ENDBRANCH  51  55
ENDBRANCH  49  52
ENDBRANCH  46  49
ENDBRANCH  29  46
ENDBRANCH  26  33
ENDBRANCH  22  26
ENDBRANCH  19  24
ENDBRANCH  17  19
BRANCH  17  59
ATOM     59  O   UNL     1     148.219 167.338 185.186  0.00  0.00    -0.390 OA
ATOM     60  H   UNL     1     149.052 167.765 184.922  0.00  0.00    +0.210 HD
ENDBRANCH  17  59
ENDBRANCH  11  17
ENDBRANCH   7  11
ENDBRANCH   4   9
ENDBRANCH   1   4
BRANCH   1  61
ATOM     61  C   UNL     1     147.574 170.758 190.728  0.00  0.00    -0.025 C 
ATOM     62  H   UNL     1     146.873 171.363 191.313  0.00  0.00    +0.029 HD
ATOM     63  H   UNL     1     148.024 171.418 189.976  0.00  0.00    +0.029 HD
BRANCH  61  64
ATOM     64  C   UNL     1     148.689 170.195 191.624  0.00  0.00    +0.065 C 
ATOM     65  C   UNL     1     149.738 171.261 192.009  0.00  0.00    -0.017 C 
ATOM     66  C   UNL     1     150.918 170.610 192.748  0.00  0.00    -0.043 C 
ATOM     67  C   UNL     1     151.454 169.410 191.967  0.00  0.00    +0.002 C 
ATOM     68  C   UNL     1     150.327 168.430 191.618  0.00  0.00    +0.171 C 
ATOM     69  O   UNL     1     149.318 169.136 190.894  0.00  0.00    -0.345 OA
ATOM     70  C   UNL     1     150.867 167.328 190.695  0.00  0.00    +0.002 C 
ATOM     71  C   UNL     1     149.768 166.324 190.329  0.00  0.00    -0.046 C 
ATOM     72  C   UNL     1     148.752 166.157 191.457  0.00  0.00    -0.026 C 
ATOM     73  C   UNL     1     149.369 166.532 192.802  0.00  0.00    +0.062 C 
ATOM     74  O   UNL     1     149.805 167.897 192.842  0.00  0.00    -0.345 OA
ATOM     75  H   UNL     1     148.220 169.786 192.525  0.00  0.00    +0.060 HD
ATOM     76  H   UNL     1     150.134 171.706 191.088  0.00  0.00    +0.032 HD
ATOM     77  H   UNL     1     151.724 171.337 192.891  0.00  0.00    +0.027 HD
ATOM     78  H   UNL     1     150.603 170.290 193.750  0.00  0.00    +0.027 HD
ATOM     79  H   UNL     1     152.227 168.910 192.561  0.00  0.00    +0.032 HD
ATOM     80  H   UNL     1     151.923 169.787 191.049  0.00  0.00    +0.032 HD
ATOM     81  H   UNL     1     151.677 166.790 191.206  0.00  0.00    +0.032 HD
ATOM     82  H   UNL     1     151.281 167.749 189.768  0.00  0.00    +0.032 HD
ATOM     83  H   UNL     1     149.242 166.642 189.419  0.00  0.00    +0.027 HD
ATOM     84  H   UNL     1     150.232 165.360 190.089  0.00  0.00    +0.027 HD
ATOM     85  H   UNL     1     147.898 166.811 191.242  0.00  0.00    +0.029 HD
ATOM     86  H   UNL     1     148.366 165.132 191.461  0.00  0.00    +0.029 HD
ATOM     87  H   UNL     1     150.258 165.906 192.968  0.00  0.00    +0.060 HD
BRANCH  65  88
ATOM     88  C   UNL     1     149.154 172.383 192.871  0.00  0.00    -0.060 C 
ATOM     89  H   UNL     1     149.562 172.352 193.883  0.00  0.00    +0.023 HD
ATOM     90  H   UNL     1     148.064 172.297 192.947  0.00  0.00    +0.023 HD
ATOM     91  H   UNL     1     149.389 173.370 192.451  0.00  0.00    +0.023 HD
ENDBRANCH  65  88
BRANCH  73  92
ATOM     92  C   UNL     1     148.430 166.297 193.997  0.00  0.00    -0.026 C 
ATOM     93  H   UNL     1     148.973 166.577 194.902  0.00  0.00    +0.029 HD
ATOM     94  H   UNL     1     148.214 165.224 194.069  0.00  0.00    +0.029 HD
BRANCH  92  95
ATOM     95  C   UNL     1     147.113 167.084 193.934  0.00  0.00    -0.045 C 
ATOM     96  H   UNL     1     147.015 167.523 192.932  0.00  0.00    +0.027 HD
ATOM     97  H   UNL     1     147.164 167.920 194.638  0.00  0.00    +0.027 HD
BRANCH  95  98
ATOM     98  C   UNL     1     145.822 166.291 194.229  0.00  0.00    -0.025 C 
ATOM     99  H   UNL     1     145.204 166.958 194.839  0.00  0.00    +0.034 HD
BRANCH  98 100
ATOM    100  C   UNL     1     146.084 165.046 195.075  0.00  0.00    -0.059 C 
ATOM    101  H   UNL     1     145.274 164.319 194.944  0.00  0.00    +0.024 HD
ATOM    102  H   UNL     1     146.133 165.297 196.138  0.00  0.00    +0.024 HD
ATOM    103  H   UNL     1     147.017 164.544 194.801  0.00  0.00    +0.024 HD
ENDBRANCH  98 100
BRANCH  98 104
ATOM    104  C   UNL     1     145.088 165.903 192.960  0.00  0.00    -0.080 C 
ATOM    105  C   UNL     1     143.767 165.999 192.698  0.00  0.00    -0.048 C 
ATOM    106  H   UNL     1     145.743 165.490 192.198  0.00  0.00    +0.058 HD
BRANCH 105 107
ATOM    107  C   UNL     1     142.743 166.506 193.692  0.00  0.00    -0.041 C 
ATOM    108  H   UNL     1     142.871 167.556 193.955  0.00  0.00    +0.028 HD
ATOM    109  H   UNL     1     141.731 166.381 193.292  0.00  0.00    +0.028 HD
ATOM    110  H   UNL     1     142.812 165.941 194.628  0.00  0.00    +0.028 HD
ENDBRANCH 105 107
BRANCH 105 111
ATOM    111  C   UNL     1     143.140 165.588 191.372  0.00  0.00    +0.073 C 
ATOM    112  H   UNL     1     143.217 164.499 191.276  0.00  0.00    +0.064 HD
BRANCH 111 113
ATOM    113  C   UNL     1     143.709 166.206 190.093  0.00  0.00    -0.035 C 
ATOM    114  H   UNL     1     142.970 166.212 189.286  0.00  0.00    +0.026 HD
ATOM    115  H   UNL     1     144.021 167.240 190.289  0.00  0.00    +0.026 HD
ATOM    116  H   UNL     1     144.603 165.671 189.756  0.00  0.00    +0.026 HD
ENDBRANCH 111 113
BRANCH 111 117
ATOM    117  O   UNL     1     141.751 165.909 191.420  0.00  0.00    -0.388 OA
ATOM    118  H   UNL     1     141.523 166.301 190.560  0.00  0.00    +0.210 HD
ENDBRANCH 111 117
ENDBRANCH 105 111
ENDBRANCH  98 104
ENDBRANCH  95  98
ENDBRANCH  92  95
ENDBRANCH  73  92
ENDBRANCH  61  64
ENDBRANCH   1  61
TORSDOF 27
ENDMDL
MODEL 5
REMARK VINA RESULT:      -5.9      3.152     10.806
REMARK  Name = Bistramide A_conf3
REMARK  27 active torsions:
REMARK  status: ('A' for Active; 'I' for Inactive)
REMARK    1  A    between atoms: C_1  and  C_2
REMARK    2  A    between atoms: C_3  and  C_4
REMARK    3  A    between atoms: C_4  and  C_6
REMARK    4  A    between atoms: C_6  and  C_7
REMARK    5  A    between atoms: C_10  and  C_50
REMARK    6  A    between atoms: C_11  and  C_13
REMARK    7  A    between atoms: C_13  and  C_14
REMARK    8  A    between atoms: N_16  and  C_17
REMARK    9  A    between atoms: C_17  and  C_18
REMARK   10  A    between atoms: C_18  and  C_19
REMARK   11  A    between atoms: C_18  and  O_49
REMARK   12  A    between atoms: C_19  and  C_20
REMARK   13  A    between atoms: C_19  and  C_21
REMARK   14  A    between atoms: N_23  and  C_24
REMARK   15  A    between atoms: C_24  and  C_25
REMARK   16  A    between atoms: C_25  and  C_26
REMARK   17  A    between atoms: C_26  and  C_27
REMARK   18  A    between atoms: C_28  and  C_48
REMARK   19  A    between atoms: C_36  and  C_38
REMARK   20  A    between atoms: C_38  and  C_39
REMARK   21  A    between atoms: C_39  and  C_40
REMARK   22  A    between atoms: C_40  and  C_41
REMARK   23  A    between atoms: C_40  and  C_42
REMARK   24  A    between atoms: C_43  and  C_44
REMARK   25  A    between atoms: C_43  and  C_45
REMARK   26  A    between atoms: C_45  and  C_46
REMARK   27  A    between atoms: C_45  and  O_47
REMARK                            x       y       z     vdW  Elec       q    Type
REMARK                         _______ _______ _______ _____ _____    ______ ____
ROOT
ATOM      1  C   UNL     1     151.997 166.527 191.733  0.00  0.00    -0.035 C 
ATOM      2  H   UNL     1     151.523 166.831 190.793  0.00  0.00    +0.028 HD
ATOM      3  H   UNL     1     151.427 165.670 192.108  0.00  0.00    +0.028 HD
ENDROOT
BRANCH   1   4
ATOM      4  C   UNL     1     151.883 167.670 192.742  0.00  0.00    +0.012 C 
ATOM      5  H   UNL     1     151.911 167.272 193.761  0.00  0.00    +0.046 HD
ATOM      6  H   UNL     1     152.721 168.367 192.632  0.00  0.00    +0.046 HD
BRANCH   4   9
ATOM      7  C   UNL     1     150.672 169.733 192.109  0.00  0.00    +0.218 C 
ATOM      8  O   UNL     1     151.701 170.306 191.752  0.00  0.00    -0.275 OA
ATOM      9  N   UNL     1     150.663 168.434 192.584  0.00  0.00    -0.315 N 
ATOM     10  H   UNL     1     149.789 168.010 192.875  0.00  0.00    +0.149 HD
BRANCH   7  11
ATOM     11  C   UNL     1     149.293 170.391 192.129  0.00  0.00    +0.060 C 
ATOM     12  H   UNL     1     148.706 169.874 192.900  0.00  0.00    +0.042 HD
BRANCH  11  13
ATOM     13  C   UNL     1     149.500 171.851 192.538  0.00  0.00    -0.052 C 
ATOM     14  H   UNL     1     150.099 172.394 191.797  0.00  0.00    +0.024 HD
ATOM     15  H   UNL     1     148.550 172.368 192.678  0.00  0.00    +0.024 HD
ATOM     16  H   UNL     1     150.029 171.938 193.490  0.00  0.00    +0.024 HD
ENDBRANCH  11  13
BRANCH  11  17
ATOM     17  C   UNL     1     148.574 170.233 190.768  0.00  0.00    +0.081 C 
ATOM     18  H   UNL     1     149.062 170.845 190.002  0.00  0.00    +0.062 HD
BRANCH  17  19
ATOM     19  C   UNL     1     147.067 170.563 190.785  0.00  0.00    +0.038 C 
ATOM     20  H   UNL     1     146.822 171.088 191.720  0.00  0.00    +0.049 HD
ATOM     21  H   UNL     1     146.840 171.282 189.984  0.00  0.00    +0.049 HD
BRANCH  19  24
ATOM     22  C   UNL     1     144.932 169.512 190.134  0.00  0.00    +0.216 C 
ATOM     23  O   UNL     1     144.514 170.535 189.601  0.00  0.00    -0.276 OA
ATOM     24  N   UNL     1     146.173 169.421 190.727  0.00  0.00    -0.313 N 
ATOM     25  H   UNL     1     146.434 168.572 191.213  0.00  0.00    +0.149 HD
BRANCH  22  26
ATOM     26  C   UNL     1     144.126 168.234 190.209  0.00  0.00    +0.050 C 
ATOM     27  H   UNL     1     144.433 167.600 189.369  0.00  0.00    +0.038 HD
ATOM     28  H   UNL     1     143.060 168.437 190.059  0.00  0.00    +0.038 HD
BRANCH  26  33
ATOM     29  C   UNL     1     145.695 165.632 192.373  0.00  0.00    +0.066 C 
ATOM     30  C   UNL     1     144.965 165.994 193.670  0.00  0.00    -0.026 C 
ATOM     31  C   UNL     1     143.459 166.110 193.448  0.00  0.00    -0.046 C 
ATOM     32  C   UNL     1     143.107 166.808 192.115  0.00  0.00    -0.017 C 
ATOM     33  C   UNL     1     144.368 167.479 191.521  0.00  0.00    +0.070 C 
ATOM     34  O   UNL     1     145.389 166.498 191.269  0.00  0.00    -0.372 OA
ATOM     35  H   UNL     1     145.363 164.632 192.065  0.00  0.00    +0.060 HD
ATOM     36  H   UNL     1     145.162 165.256 194.454  0.00  0.00    +0.029 HD
ATOM     37  H   UNL     1     145.339 166.951 194.058  0.00  0.00    +0.029 HD
ATOM     38  H   UNL     1     143.009 165.109 193.503  0.00  0.00    +0.027 HD
ATOM     39  H   UNL     1     143.030 166.682 194.287  0.00  0.00    +0.027 HD
ATOM     40  H   UNL     1     142.354 167.577 192.336  0.00  0.00    +0.032 HD
ATOM     41  H   UNL     1     144.777 168.200 192.244  0.00  0.00    +0.060 HD
BRANCH  32  42
ATOM     42  C   UNL     1     142.454 165.799 191.162  0.00  0.00    -0.060 C 
ATOM     43  H   UNL     1     141.363 165.814 191.243  0.00  0.00    +0.023 HD
ATOM     44  H   UNL     1     142.712 166.002 190.119  0.00  0.00    +0.023 HD
ATOM     45  H   UNL     1     142.768 164.776 191.394  0.00  0.00    +0.023 HD
ENDBRANCH  32  42
BRANCH  29  46
ATOM     46  C   UNL     1     147.212 165.625 192.544  0.00  0.00    +0.036 C 
ATOM     47  H   UNL     1     147.711 165.737 191.574  0.00  0.00    +0.037 HD
ATOM     48  H   UNL     1     147.570 164.658 192.918  0.00  0.00    +0.037 HD
BRANCH  46  49
ATOM     49  C   UNL     1     147.675 166.741 193.452  0.00  0.00    +0.158 C 
ATOM     50  O   UNL     1     147.528 167.921 193.132  0.00  0.00    -0.293 OA
BRANCH  49  52
ATOM     51  C   UNL     1     149.492 165.881 194.971  0.00  0.00    -0.084 C 
ATOM     52  C   UNL     1     148.289 166.445 194.774  0.00  0.00    -0.023 C 
ATOM     53  H   UNL     1     150.129 165.582 194.142  0.00  0.00    +0.057 HD
ATOM     54  H   UNL     1     147.669 166.743 195.617  0.00  0.00    +0.065 HD
BRANCH  51  55
ATOM     55  C   UNL     1     150.043 165.609 196.335  0.00  0.00    -0.046 C 
ATOM     56  H   UNL     1     149.810 164.585 196.629  0.00  0.00    +0.027 HD
ATOM     57  H   UNL     1     149.594 166.297 197.060  0.00  0.00    +0.027 HD
ATOM     58  H   UNL     1     151.129 165.735 196.372  0.00  0.00    +0.027 HD
ENDBRANCH  51  55
ENDBRANCH  49  52
ENDBRANCH  46  49
ENDBRANCH  29  46
ENDBRANCH  26  33
ENDBRANCH  22  26
ENDBRANCH  19  24
ENDBRANCH  17  19
BRANCH  17  59
ATOM     59  O   UNL     1     148.661 168.864 190.326  0.00  0.00    -0.390 OA
ATOM     60  H   UNL     1     147.914 168.363 190.697  0.00  0.00    +0.210 HD
ENDBRANCH  17  59
ENDBRANCH  11  17
ENDBRANCH   7  11
ENDBRANCH   4   9
ENDBRANCH   1   4
BRANCH   1  61
ATOM     61  C   UNL     1     153.449 166.097 191.480  0.00  0.00    -0.025 C 
ATOM     62  H   UNL     1     153.660 165.202 192.074  0.00  0.00    +0.029 HD
ATOM     63  H   UNL     1     154.125 166.887 191.831  0.00  0.00    +0.029 HD
BRANCH  61  64
ATOM     64  C   UNL     1     153.721 165.839 189.989  0.00  0.00    +0.065 C 
ATOM     65  C   UNL     1     155.074 166.422 189.522  0.00  0.00    -0.017 C 
ATOM     66  C   UNL     1     155.213 166.298 187.996  0.00  0.00    -0.043 C 
ATOM     67  C   UNL     1     153.976 166.853 187.289  0.00  0.00    +0.002 C 
ATOM     68  C   UNL     1     152.693 166.225 187.846  0.00  0.00    +0.171 C 
ATOM     69  O   UNL     1     152.651 166.447 189.257  0.00  0.00    -0.345 OA
ATOM     70  C   UNL     1     151.468 166.922 187.237  0.00  0.00    +0.002 C 
ATOM     71  C   UNL     1     150.164 166.316 187.767  0.00  0.00    -0.046 C 
ATOM     72  C   UNL     1     150.312 164.826 188.070  0.00  0.00    -0.026 C 
ATOM     73  C   UNL     1     151.451 164.217 187.254  0.00  0.00    +0.062 C 
ATOM     74  O   UNL     1     152.716 164.823 187.546  0.00  0.00    -0.345 OA
ATOM     75  H   UNL     1     153.703 164.757 189.827  0.00  0.00    +0.060 HD
ATOM     76  H   UNL     1     155.093 167.491 189.766  0.00  0.00    +0.032 HD
ATOM     77  H   UNL     1     156.100 166.839 187.650  0.00  0.00    +0.027 HD
ATOM     78  H   UNL     1     155.358 165.245 187.716  0.00  0.00    +0.027 HD
ATOM     79  H   UNL     1     154.061 166.663 186.214  0.00  0.00    +0.032 HD
ATOM     80  H   UNL     1     153.960 167.940 187.442  0.00  0.00    +0.032 HD
ATOM     81  H   UNL     1     151.489 166.807 186.145  0.00  0.00    +0.032 HD
ATOM     82  H   UNL     1     151.469 167.999 187.457  0.00  0.00    +0.032 HD
ATOM     83  H   UNL     1     149.838 166.835 188.677  0.00  0.00    +0.027 HD
ATOM     84  H   UNL     1     149.370 166.476 187.027  0.00  0.00    +0.027 HD
ATOM     85  H   UNL     1     150.520 164.719 189.141  0.00  0.00    +0.029 HD
ATOM     86  H   UNL     1     149.363 164.313 187.884  0.00  0.00    +0.029 HD
ATOM     87  H   UNL     1     151.250 164.391 186.187  0.00  0.00    +0.060 HD
BRANCH  65  88
ATOM     88  C   UNL     1     156.273 165.754 190.199  0.00  0.00    -0.060 C 
ATOM     89  H   UNL     1     155.981 165.293 191.145  0.00  0.00    +0.023 HD
ATOM     90  H   UNL     1     157.063 166.483 190.412  0.00  0.00    +0.023 HD
ATOM     91  H   UNL     1     156.699 164.966 189.566  0.00  0.00    +0.023 HD
ENDBRANCH  65  88
BRANCH  73  92
ATOM     92  C   UNL     1     151.595 162.698 187.439  0.00  0.00    -0.026 C 
ATOM     93  H   UNL     1     152.044 162.297 186.528  0.00  0.00    +0.029 HD
ATOM     94  H   UNL     1     150.595 162.257 187.528  0.00  0.00    +0.029 HD
BRANCH  92  95
ATOM     95  C   UNL     1     152.450 162.283 188.646  0.00  0.00    -0.045 C 
ATOM     96  H   UNL     1     151.782 161.922 189.440  0.00  0.00    +0.027 HD
ATOM     97  H   UNL     1     152.958 163.166 189.042  0.00  0.00    +0.027 HD
BRANCH  95  98
ATOM     98  C   UNL     1     153.514 161.194 188.394  0.00  0.00    -0.025 C 
ATOM     99  H   UNL     1     153.535 161.052 187.309  0.00  0.00    +0.034 HD
BRANCH  98 100
ATOM    100  C   UNL     1     153.124 159.847 189.001  0.00  0.00    -0.059 C 
ATOM    101  H   UNL     1     153.910 159.105 188.819  0.00  0.00    +0.024 HD
ATOM    102  H   UNL     1     152.202 159.468 188.554  0.00  0.00    +0.024 HD
ATOM    103  H   UNL     1     152.977 159.904 190.084  0.00  0.00    +0.024 HD
ENDBRANCH  98 100
BRANCH  98 104
ATOM    104  C   UNL     1     154.883 161.606 188.900  0.00  0.00    -0.080 C 
ATOM    105  C   UNL     1     155.828 162.326 188.258  0.00  0.00    -0.048 C 
ATOM    106  H   UNL     1     155.093 161.246 189.904  0.00  0.00    +0.058 HD
BRANCH 105 107
ATOM    107  C   UNL     1     155.681 162.839 186.841  0.00  0.00    -0.041 C 
ATOM    108  H   UNL     1     156.188 162.224 186.097  0.00  0.00    +0.028 HD
ATOM    109  H   UNL     1     154.622 162.895 186.565  0.00  0.00    +0.028 HD
ATOM    110  H   UNL     1     156.108 163.845 186.755  0.00  0.00    +0.028 HD
ENDBRANCH 105 107
BRANCH 105 111
ATOM    111  C   UNL     1     157.171 162.693 188.876  0.00  0.00    +0.073 C 
ATOM    112  H   UNL     1     156.988 163.332 189.747  0.00  0.00    +0.064 HD
BRANCH 111 113
ATOM    113  C   UNL     1     158.194 163.405 187.989  0.00  0.00    -0.035 C 
ATOM    114  H   UNL     1     157.998 163.227 186.926  0.00  0.00    +0.026 HD
ATOM    115  H   UNL     1     158.156 164.487 188.175  0.00  0.00    +0.026 HD
ATOM    116  H   UNL     1     159.215 163.086 188.223  0.00  0.00    +0.026 HD
ENDBRANCH 111 113
BRANCH 111 117
ATOM    117  O   UNL     1     157.780 161.495 189.355  0.00  0.00    -0.388 OA
ATOM    118  H   UNL     1     157.504 161.391 190.281  0.00  0.00    +0.210 HD
ENDBRANCH 111 117
ENDBRANCH 105 111
ENDBRANCH  98 104
ENDBRANCH  95  98
ENDBRANCH  92  95
ENDBRANCH  73  92
ENDBRANCH  61  64
ENDBRANCH   1  61
TORSDOF 27
ENDMDL
MODEL 6
REMARK VINA RESULT:      -5.9      3.724     10.484
REMARK  Name = Bistramide A_conf3
REMARK  27 active torsions:
REMARK  status: ('A' for Active; 'I' for Inactive)
REMARK    1  A    between atoms: C_1  and  C_2
REMARK    2  A    between atoms: C_3  and  C_4
REMARK    3  A    between atoms: C_4  and  C_6
REMARK    4  A    between atoms: C_6  and  C_7
REMARK    5  A    between atoms: C_10  and  C_50
REMARK    6  A    between atoms: C_11  and  C_13
REMARK    7  A    between atoms: C_13  and  C_14
REMARK    8  A    between atoms: N_16  and  C_17
REMARK    9  A    between atoms: C_17  and  C_18
REMARK   10  A    between atoms: C_18  and  C_19
REMARK   11  A    between atoms: C_18  and  O_49
REMARK   12  A    between atoms: C_19  and  C_20
REMARK   13  A    between atoms: C_19  and  C_21
REMARK   14  A    between atoms: N_23  and  C_24
REMARK   15  A    between atoms: C_24  and  C_25
REMARK   16  A    between atoms: C_25  and  C_26
REMARK   17  A    between atoms: C_26  and  C_27
REMARK   18  A    between atoms: C_28  and  C_48
REMARK   19  A    between atoms: C_36  and  C_38
REMARK   20  A    between atoms: C_38  and  C_39
REMARK   21  A    between atoms: C_39  and  C_40
REMARK   22  A    between atoms: C_40  and  C_41
REMARK   23  A    between atoms: C_40  and  C_42
REMARK   24  A    between atoms: C_43  and  C_44
REMARK   25  A    between atoms: C_43  and  C_45
REMARK   26  A    between atoms: C_45  and  C_46
REMARK   27  A    between atoms: C_45  and  O_47
REMARK                            x       y       z     vdW  Elec       q    Type
REMARK                         _______ _______ _______ _____ _____    ______ ____
ROOT
ATOM      1  C   UNL     1     149.687 163.911 186.996  0.00  0.00    -0.035 C 
ATOM      2  H   UNL     1     148.699 163.444 187.072  0.00  0.00    +0.028 HD
ATOM      3  H   UNL     1     149.852 164.449 187.935  0.00  0.00    +0.028 HD
ENDROOT
BRANCH   1   4
ATOM      4  C   UNL     1     149.674 164.920 185.847  0.00  0.00    +0.012 C 
ATOM      5  H   UNL     1     150.684 165.034 185.440  0.00  0.00    +0.046 HD
ATOM      6  H   UNL     1     149.024 164.574 185.036  0.00  0.00    +0.046 HD
BRANCH   4   9
ATOM      7  C   UNL     1     148.575 167.085 185.369  0.00  0.00    +0.218 C 
ATOM      8  O   UNL     1     148.349 166.786 184.197  0.00  0.00    -0.275 OA
ATOM      9  N   UNL     1     149.197 166.225 186.256  0.00  0.00    -0.315 N 
ATOM     10  H   UNL     1     149.370 166.522 187.210  0.00  0.00    +0.149 HD
BRANCH   7  11
ATOM     11  C   UNL     1     148.254 168.449 185.979  0.00  0.00    +0.060 C 
ATOM     12  H   UNL     1     149.215 168.951 186.156  0.00  0.00    +0.042 HD
BRANCH  11  13
ATOM     13  C   UNL     1     147.457 169.230 184.932  0.00  0.00    -0.052 C 
ATOM     14  H   UNL     1     146.397 169.300 185.206  0.00  0.00    +0.024 HD
ATOM     15  H   UNL     1     147.856 170.235 184.789  0.00  0.00    +0.024 HD
ATOM     16  H   UNL     1     147.493 168.753 183.950  0.00  0.00    +0.024 HD
ENDBRANCH  11  13
BRANCH  11  17
ATOM     17  C   UNL     1     147.513 168.303 187.329  0.00  0.00    +0.081 C 
ATOM     18  H   UNL     1     146.784 167.487 187.281  0.00  0.00    +0.062 HD
BRANCH  17  19
ATOM     19  C   UNL     1     146.802 169.580 187.824  0.00  0.00    +0.038 C 
ATOM     20  H   UNL     1     146.932 170.378 187.080  0.00  0.00    +0.049 HD
ATOM     21  H   UNL     1     145.718 169.401 187.868  0.00  0.00    +0.049 HD
BRANCH  19  24
ATOM     22  C   UNL     1     146.749 171.270 189.620  0.00  0.00    +0.216 C 
ATOM     23  O   UNL     1     145.819 171.883 189.107  0.00  0.00    -0.276 OA
ATOM     24  N   UNL     1     147.291 170.124 189.077  0.00  0.00    -0.313 N 
ATOM     25  H   UNL     1     148.104 169.703 189.509  0.00  0.00    +0.149 HD
BRANCH  22  26
ATOM     26  C   UNL     1     147.417 171.709 190.904  0.00  0.00    +0.050 C 
ATOM     27  H   UNL     1     146.645 171.749 191.682  0.00  0.00    +0.038 HD
ATOM     28  H   UNL     1     147.803 172.731 190.813  0.00  0.00    +0.038 HD
BRANCH  26  33
ATOM     29  C   UNL     1     148.816 168.807 192.784  0.00  0.00    +0.066 C 
ATOM     30  C   UNL     1     150.254 168.919 192.270  0.00  0.00    -0.026 C 
ATOM     31  C   UNL     1     150.784 170.345 192.405  0.00  0.00    -0.046 C 
ATOM     32  C   UNL     1     149.723 171.409 192.043  0.00  0.00    -0.017 C 
ATOM     33  C   UNL     1     148.519 170.738 191.341  0.00  0.00    +0.070 C 
ATOM     34  O   UNL     1     147.912 169.762 192.207  0.00  0.00    -0.372 OA
ATOM     35  H   UNL     1     148.822 169.020 193.860  0.00  0.00    +0.060 HD
ATOM     36  H   UNL     1     150.919 168.232 192.802  0.00  0.00    +0.029 HD
ATOM     37  H   UNL     1     150.301 168.625 191.214  0.00  0.00    +0.029 HD
ATOM     38  H   UNL     1     151.162 170.493 193.426  0.00  0.00    +0.027 HD
ATOM     39  H   UNL     1     151.655 170.453 191.740  0.00  0.00    +0.027 HD
ATOM     40  H   UNL     1     150.196 172.122 191.354  0.00  0.00    +0.032 HD
ATOM     41  H   UNL     1     148.865 170.209 190.442  0.00  0.00    +0.060 HD
BRANCH  32  42
ATOM     42  C   UNL     1     149.329 172.193 193.302  0.00  0.00    -0.060 C 
ATOM     43  H   UNL     1     148.634 173.005 193.070  0.00  0.00    +0.023 HD
ATOM     44  H   UNL     1     148.853 171.550 194.047  0.00  0.00    +0.023 HD
ATOM     45  H   UNL     1     150.204 172.658 193.767  0.00  0.00    +0.023 HD
ENDBRANCH  32  42
BRANCH  29  46
ATOM     46  C   UNL     1     148.224 167.419 192.552  0.00  0.00    +0.036 C 
ATOM     47  H   UNL     1     149.020 166.676 192.420  0.00  0.00    +0.037 HD
ATOM     48  H   UNL     1     147.660 167.374 191.612  0.00  0.00    +0.037 HD
BRANCH  46  49
ATOM     49  C   UNL     1     147.351 166.985 193.707  0.00  0.00    +0.158 C 
ATOM     50  O   UNL     1     146.125 166.962 193.600  0.00  0.00    -0.293 OA
BRANCH  49  52
ATOM     51  C   UNL     1     149.135 165.919 195.130  0.00  0.00    -0.084 C 
ATOM     52  C   UNL     1     147.951 166.537 194.991  0.00  0.00    -0.023 C 
ATOM     53  H   UNL     1     149.766 165.687 194.275  0.00  0.00    +0.057 HD
ATOM     54  H   UNL     1     147.338 166.766 195.861  0.00  0.00    +0.065 HD
BRANCH  51  55
ATOM     55  C   UNL     1     149.674 165.493 196.459  0.00  0.00    -0.046 C 
ATOM     56  H   UNL     1     149.011 165.840 197.254  0.00  0.00    +0.027 HD
ATOM     57  H   UNL     1     150.668 165.926 196.612  0.00  0.00    +0.027 HD
ATOM     58  H   UNL     1     149.759 164.405 196.539  0.00  0.00    +0.027 HD
ENDBRANCH  51  55
ENDBRANCH  49  52
ENDBRANCH  46  49
ENDBRANCH  29  46
ENDBRANCH  26  33
ENDBRANCH  22  26
ENDBRANCH  19  24
ENDBRANCH  17  19
BRANCH  17  59
ATOM     59  O   UNL     1     148.453 167.961 188.367  0.00  0.00    -0.390 OA
ATOM     60  H   UNL     1     148.436 168.652 189.051  0.00  0.00    +0.210 HD
ENDBRANCH  17  59
ENDBRANCH  11  17
ENDBRANCH   7  11
ENDBRANCH   4   9
ENDBRANCH   1   4
BRANCH   1  61
ATOM     61  C   UNL     1     150.771 162.835 186.832  0.00  0.00    -0.025 C 
ATOM     62  H   UNL     1     150.951 162.676 185.763  0.00  0.00    +0.029 HD
ATOM     63  H   UNL     1     150.403 161.887 187.244  0.00  0.00    +0.029 HD
BRANCH  61  64
ATOM     64  C   UNL     1     152.074 163.216 187.554  0.00  0.00    +0.065 C 
ATOM     65  C   UNL     1     152.729 162.015 188.272  0.00  0.00    -0.017 C 
ATOM     66  C   UNL     1     153.920 162.484 189.124  0.00  0.00    -0.043 C 
ATOM     67  C   UNL     1     153.519 163.652 190.024  0.00  0.00    +0.002 C 
ATOM     68  C   UNL     1     152.859 164.774 189.213  0.00  0.00    +0.171 C 
ATOM     69  O   UNL     1     151.742 164.230 188.508  0.00  0.00    -0.345 OA
ATOM     70  C   UNL     1     152.321 165.852 190.164  0.00  0.00    +0.002 C 
ATOM     71  C   UNL     1     151.658 166.996 189.388  0.00  0.00    -0.046 C 
ATOM     72  C   UNL     1     152.323 167.221 188.031  0.00  0.00    -0.026 C 
ATOM     73  C   UNL     1     153.761 166.706 188.040  0.00  0.00    +0.062 C 
ATOM     74  O   UNL     1     153.836 165.300 188.304  0.00  0.00    -0.345 OA
ATOM     75  H   UNL     1     152.761 163.628 186.810  0.00  0.00    +0.060 HD
ATOM     76  H   UNL     1     151.992 161.576 188.956  0.00  0.00    +0.032 HD
ATOM     77  H   UNL     1     154.291 161.661 189.743  0.00  0.00    +0.027 HD
ATOM     78  H   UNL     1     154.751 162.786 188.472  0.00  0.00    +0.027 HD
ATOM     79  H   UNL     1     154.408 164.026 190.545  0.00  0.00    +0.032 HD
ATOM     80  H   UNL     1     152.819 163.271 190.779  0.00  0.00    +0.032 HD
ATOM     81  H   UNL     1     153.150 166.265 190.755  0.00  0.00    +0.032 HD
ATOM     82  H   UNL     1     151.587 165.435 190.868  0.00  0.00    +0.032 HD
ATOM     83  H   UNL     1     150.591 166.790 189.233  0.00  0.00    +0.027 HD
ATOM     84  H   UNL     1     151.705 167.911 189.991  0.00  0.00    +0.027 HD
ATOM     85  H   UNL     1     151.738 166.685 187.275  0.00  0.00    +0.029 HD
ATOM     86  H   UNL     1     152.276 168.283 187.766  0.00  0.00    +0.029 HD
ATOM     87  H   UNL     1     154.311 167.214 188.845  0.00  0.00    +0.060 HD
BRANCH  65  88
ATOM     88  C   UNL     1     153.192 160.925 187.303  0.00  0.00    -0.060 C 
ATOM     89  H   UNL     1     153.852 161.338 186.536  0.00  0.00    +0.023 HD
ATOM     90  H   UNL     1     152.340 160.459 186.795  0.00  0.00    +0.023 HD
ATOM     91  H   UNL     1     153.749 160.138 187.827  0.00  0.00    +0.023 HD
ENDBRANCH  65  88
BRANCH  73  92
ATOM     92  C   UNL     1     154.522 166.987 186.734  0.00  0.00    -0.026 C 
ATOM     93  H   UNL     1     155.016 167.955 186.843  0.00  0.00    +0.029 HD
ATOM     94  H   UNL     1     153.797 167.084 185.917  0.00  0.00    +0.029 HD
BRANCH  92  95
ATOM     95  C   UNL     1     155.570 165.925 186.369  0.00  0.00    -0.045 C 
ATOM     96  H   UNL     1     155.762 165.979 185.289  0.00  0.00    +0.027 HD
ATOM     97  H   UNL     1     155.154 164.933 186.564  0.00  0.00    +0.027 HD
BRANCH  95  98
ATOM     98  C   UNL     1     156.929 166.022 187.094  0.00  0.00    -0.025 C 
ATOM     99  H   UNL     1     156.830 166.862 187.789  0.00  0.00    +0.034 HD
BRANCH  98 100
ATOM    100  C   UNL     1     158.073 166.376 186.144  0.00  0.00    -0.059 C 
ATOM    101  H   UNL     1     158.456 165.473 185.656  0.00  0.00    +0.024 HD
ATOM    102  H   UNL     1     158.903 166.837 186.686  0.00  0.00    +0.024 HD
ATOM    103  H   UNL     1     157.760 167.064 185.353  0.00  0.00    +0.024 HD
ENDBRANCH  98 100
BRANCH  98 104
ATOM    104  C   UNL     1     157.266 164.750 187.848  0.00  0.00    -0.080 C 
ATOM    105  C   UNL     1     157.154 164.510 189.172  0.00  0.00    -0.048 C 
ATOM    106  H   UNL     1     157.652 163.963 187.205  0.00  0.00    +0.058 HD
BRANCH 105 107
ATOM    107  C   UNL     1     156.682 165.537 190.179  0.00  0.00    -0.041 C 
ATOM    108  H   UNL     1     156.320 165.102 191.112  0.00  0.00    +0.028 HD
ATOM    109  H   UNL     1     157.494 166.230 190.424  0.00  0.00    +0.028 HD
ATOM    110  H   UNL     1     155.851 166.119 189.766  0.00  0.00    +0.028 HD
ENDBRANCH 105 107
BRANCH 105 111
ATOM    111  C   UNL     1     157.513 163.178 189.819  0.00  0.00    +0.073 C 
ATOM    112  H   UNL     1     156.705 162.897 190.504  0.00  0.00    +0.064 HD
BRANCH 111 113
ATOM    113  C   UNL     1     158.827 163.094 190.597  0.00  0.00    -0.035 C 
ATOM    114  H   UNL     1     158.835 163.779 191.450  0.00  0.00    +0.026 HD
ATOM    115  H   UNL     1     158.971 162.071 190.970  0.00  0.00    +0.026 HD
ATOM    116  H   UNL     1     159.686 163.312 189.953  0.00  0.00    +0.026 HD
ENDBRANCH 111 113
BRANCH 111 117
ATOM    117  O   UNL     1     157.557 162.186 188.794  0.00  0.00    -0.388 OA
ATOM    118  H   UNL     1     158.288 162.429 188.200  0.00  0.00    +0.210 HD
ENDBRANCH 111 117
ENDBRANCH 105 111
ENDBRANCH  98 104
ENDBRANCH  95  98
ENDBRANCH  92  95
ENDBRANCH  73  92
ENDBRANCH  61  64
ENDBRANCH   1  61
TORSDOF 27
ENDMDL
MODEL 7
REMARK VINA RESULT:      -5.8      3.076      8.181
REMARK  Name = Bistramide A_conf3
REMARK  27 active torsions:
REMARK  status: ('A' for Active; 'I' for Inactive)
REMARK    1  A    between atoms: C_1  and  C_2
REMARK    2  A    between atoms: C_3  and  C_4
REMARK    3  A    between atoms: C_4  and  C_6
REMARK    4  A    between atoms: C_6  and  C_7
REMARK    5  A    between atoms: C_10  and  C_50
REMARK    6  A    between atoms: C_11  and  C_13
REMARK    7  A    between atoms: C_13  and  C_14
REMARK    8  A    between atoms: N_16  and  C_17
REMARK    9  A    between atoms: C_17  and  C_18
REMARK   10  A    between atoms: C_18  and  C_19
REMARK   11  A    between atoms: C_18  and  O_49
REMARK   12  A    between atoms: C_19  and  C_20
REMARK   13  A    between atoms: C_19  and  C_21
REMARK   14  A    between atoms: N_23  and  C_24
REMARK   15  A    between atoms: C_24  and  C_25
REMARK   16  A    between atoms: C_25  and  C_26
REMARK   17  A    between atoms: C_26  and  C_27
REMARK   18  A    between atoms: C_28  and  C_48
REMARK   19  A    between atoms: C_36  and  C_38
REMARK   20  A    between atoms: C_38  and  C_39
REMARK   21  A    between atoms: C_39  and  C_40
REMARK   22  A    between atoms: C_40  and  C_41
REMARK   23  A    between atoms: C_40  and  C_42
REMARK   24  A    between atoms: C_43  and  C_44
REMARK   25  A    between atoms: C_43  and  C_45
REMARK   26  A    between atoms: C_45  and  C_46
REMARK   27  A    between atoms: C_45  and  O_47
REMARK                            x       y       z     vdW  Elec       q    Type
REMARK                         _______ _______ _______ _____ _____    ______ ____
ROOT
ATOM      1  C   UNL     1     146.285 170.003 189.602  0.00  0.00    -0.035 C 
ATOM      2  H   UNL     1     146.886 169.198 190.041  0.00  0.00    +0.028 HD
ATOM      3  H   UNL     1     145.244 169.796 189.869  0.00  0.00    +0.028 HD
ENDROOT
BRANCH   1   4
ATOM      4  C   UNL     1     146.422 169.952 188.080  0.00  0.00    +0.012 C 
ATOM      5  H   UNL     1     145.583 170.478 187.613  0.00  0.00    +0.046 HD
ATOM      6  H   UNL     1     147.346 170.446 187.758  0.00  0.00    +0.046 HD
BRANCH   4   9
ATOM      7  C   UNL     1     147.410 168.186 186.656  0.00  0.00    +0.218 C 
ATOM      8  O   UNL     1     148.313 168.921 186.257  0.00  0.00    -0.275 OA
ATOM      9  N   UNL     1     146.454 168.598 187.567  0.00  0.00    -0.315 N 
ATOM     10  H   UNL     1     145.724 167.957 187.857  0.00  0.00    +0.149 HD
BRANCH   7  11
ATOM     11  C   UNL     1     147.193 166.757 186.162  0.00  0.00    +0.060 C 
ATOM     12  H   UNL     1     146.147 166.690 185.833  0.00  0.00    +0.042 HD
BRANCH  11  13
ATOM     13  C   UNL     1     148.118 166.554 184.959  0.00  0.00    -0.052 C 
ATOM     14  H   UNL     1     147.780 167.134 184.092  0.00  0.00    +0.024 HD
ATOM     15  H   UNL     1     149.148 166.827 185.192  0.00  0.00    +0.024 HD
ATOM     16  H   UNL     1     148.151 165.509 184.641  0.00  0.00    +0.024 HD
ENDBRANCH  11  13
BRANCH  11  17
ATOM     17  C   UNL     1     147.426 165.727 187.294  0.00  0.00    +0.081 C 
ATOM     18  H   UNL     1     146.531 165.636 187.919  0.00  0.00    +0.062 HD
BRANCH  17  19
ATOM     19  C   UNL     1     148.640 166.018 188.200  0.00  0.00    +0.038 C 
ATOM     20  H   UNL     1     148.908 167.080 188.116  0.00  0.00    +0.049 HD
ATOM     21  H   UNL     1     148.354 165.875 189.252  0.00  0.00    +0.049 HD
BRANCH  19  24
ATOM     22  C   UNL     1     150.932 165.895 187.296  0.00  0.00    +0.216 C 
ATOM     23  O   UNL     1     150.962 167.091 187.026  0.00  0.00    -0.276 OA
ATOM     24  N   UNL     1     149.849 165.279 187.885  0.00  0.00    -0.313 N 
ATOM     25  H   UNL     1     149.857 164.276 188.018  0.00  0.00    +0.149 HD
BRANCH  22  26
ATOM     26  C   UNL     1     152.082 164.956 187.002  0.00  0.00    +0.050 C 
ATOM     27  H   UNL     1     152.583 165.321 186.097  0.00  0.00    +0.038 HD
ATOM     28  H   UNL     1     151.712 163.954 186.757  0.00  0.00    +0.038 HD
BRANCH  26  33
ATOM     29  C   UNL     1     153.370 165.762 190.409  0.00  0.00    +0.066 C 
ATOM     30  C   UNL     1     154.693 164.997 190.300  0.00  0.00    -0.026 C 
ATOM     31  C   UNL     1     155.435 165.348 189.014  0.00  0.00    -0.046 C 
ATOM     32  C   UNL     1     154.489 165.479 187.798  0.00  0.00    -0.017 C 
ATOM     33  C   UNL     1     153.094 164.910 188.151  0.00  0.00    +0.070 C 
ATOM     34  O   UNL     1     152.522 165.630 189.257  0.00  0.00    -0.372 OA
ATOM     35  H   UNL     1     153.602 166.832 190.483  0.00  0.00    +0.060 HD
ATOM     36  H   UNL     1     155.338 165.200 191.161  0.00  0.00    +0.029 HD
ATOM     37  H   UNL     1     154.504 163.916 190.315  0.00  0.00    +0.029 HD
ATOM     38  H   UNL     1     156.010 166.271 189.170  0.00  0.00    +0.027 HD
ATOM     39  H   UNL     1     156.178 164.558 188.818  0.00  0.00    +0.027 HD
ATOM     40  H   UNL     1     154.926 164.893 186.978  0.00  0.00    +0.032 HD
ATOM     41  H   UNL     1     153.193 163.859 188.459  0.00  0.00    +0.060 HD
BRANCH  32  42
ATOM     42  C   UNL     1     154.446 166.940 187.334  0.00  0.00    -0.060 C 
ATOM     43  H   UNL     1     154.565 167.023 186.250  0.00  0.00    +0.023 HD
ATOM     44  H   UNL     1     153.501 167.422 187.602  0.00  0.00    +0.023 HD
ATOM     45  H   UNL     1     155.259 167.521 187.780  0.00  0.00    +0.023 HD
ENDBRANCH  32  42
BRANCH  29  46
ATOM     46  C   UNL     1     152.555 165.341 191.629  0.00  0.00    +0.036 C 
ATOM     47  H   UNL     1     152.770 164.299 191.898  0.00  0.00    +0.037 HD
ATOM     48  H   UNL     1     151.479 165.343 191.413  0.00  0.00    +0.037 HD
BRANCH  46  49
ATOM     49  C   UNL     1     152.850 166.215 192.825  0.00  0.00    +0.158 C 
ATOM     50  O   UNL     1     153.619 167.173 192.736  0.00  0.00    -0.293 OA
BRANCH  49  52
ATOM     51  C   UNL     1     151.002 165.367 194.312  0.00  0.00    -0.084 C 
ATOM     52  C   UNL     1     152.191 165.966 194.135  0.00  0.00    -0.023 C 
ATOM     53  H   UNL     1     150.409 165.008 193.474  0.00  0.00    +0.057 HD
ATOM     54  H   UNL     1     152.773 166.312 194.987  0.00  0.00    +0.065 HD
BRANCH  51  55
ATOM     55  C   UNL     1     150.399 165.154 195.664  0.00  0.00    -0.046 C 
ATOM     56  H   UNL     1     150.959 164.387 196.202  0.00  0.00    +0.027 HD
ATOM     57  H   UNL     1     149.359 164.824 195.557  0.00  0.00    +0.027 HD
ATOM     58  H   UNL     1     150.408 166.067 196.267  0.00  0.00    +0.027 HD
ENDBRANCH  51  55
ENDBRANCH  49  52
ENDBRANCH  46  49
ENDBRANCH  29  46
ENDBRANCH  26  33
ENDBRANCH  22  26
ENDBRANCH  19  24
ENDBRANCH  17  19
BRANCH  17  59
ATOM     59  O   UNL     1     147.674 164.426 186.726  0.00  0.00    -0.390 OA
ATOM     60  H   UNL     1     148.466 164.471 186.164  0.00  0.00    +0.210 HD
ENDBRANCH  17  59
ENDBRANCH  11  17
ENDBRANCH   7  11
ENDBRANCH   4   9
ENDBRANCH   1   4
BRANCH   1  61
ATOM     61  C   UNL     1     146.700 171.358 190.194  0.00  0.00    -0.025 C 
ATOM     62  H   UNL     1     145.797 171.939 190.409  0.00  0.00    +0.029 HD
ATOM     63  H   UNL     1     147.276 171.917 189.445  0.00  0.00    +0.029 HD
BRANCH  61  64
ATOM     64  C   UNL     1     147.559 171.195 191.458  0.00  0.00    +0.065 C 
ATOM     65  C   UNL     1     147.963 172.550 192.081  0.00  0.00    -0.017 C 
ATOM     66  C   UNL     1     148.964 172.336 193.228  0.00  0.00    -0.043 C 
ATOM     67  C   UNL     1     150.122 171.444 192.780  0.00  0.00    +0.002 C 
ATOM     68  C   UNL     1     149.608 170.141 192.157  0.00  0.00    +0.171 C 
ATOM     69  O   UNL     1     148.731 170.467 191.077  0.00  0.00    -0.345 OA
ATOM     70  C   UNL     1     150.785 169.349 191.569  0.00  0.00    +0.002 C 
ATOM     71  C   UNL     1     150.309 168.034 190.941  0.00  0.00    -0.046 C 
ATOM     72  C   UNL     1     149.095 167.462 191.670  0.00  0.00    -0.026 C 
ATOM     73  C   UNL     1     149.035 167.975 193.108  0.00  0.00    +0.062 C 
ATOM     74  O   UNL     1     148.920 169.402 193.174  0.00  0.00    -0.345 OA
ATOM     75  H   UNL     1     146.985 170.606 192.180  0.00  0.00    +0.060 HD
ATOM     76  H   UNL     1     148.469 173.148 191.314  0.00  0.00    +0.032 HD
ATOM     77  H   UNL     1     149.359 173.297 193.571  0.00  0.00    +0.027 HD
ATOM     78  H   UNL     1     148.457 171.879 194.089  0.00  0.00    +0.027 HD
ATOM     79  H   UNL     1     150.765 171.231 193.641  0.00  0.00    +0.032 HD
ATOM     80  H   UNL     1     150.714 172.006 192.045  0.00  0.00    +0.032 HD
ATOM     81  H   UNL     1     151.503 169.116 192.367  0.00  0.00    +0.032 HD
ATOM     82  H   UNL     1     151.317 169.931 190.804  0.00  0.00    +0.032 HD
ATOM     83  H   UNL     1     150.054 168.180 189.884  0.00  0.00    +0.027 HD
ATOM     84  H   UNL     1     151.136 167.313 190.956  0.00  0.00    +0.027 HD
ATOM     85  H   UNL     1     148.196 167.773 191.125  0.00  0.00    +0.029 HD
ATOM     86  H   UNL     1     149.119 166.368 191.632  0.00  0.00    +0.029 HD
ATOM     87  H   UNL     1     149.972 167.705 193.616  0.00  0.00    +0.060 HD
BRANCH  65  88
ATOM     88  C   UNL     1     146.762 173.347 192.595  0.00  0.00    -0.060 C 
ATOM     89  H   UNL     1     146.702 174.323 192.107  0.00  0.00    +0.023 HD
ATOM     90  H   UNL     1     146.833 173.518 193.675  0.00  0.00    +0.023 HD
ATOM     91  H   UNL     1     145.820 172.821 192.395  0.00  0.00    +0.023 HD
ENDBRANCH  65  88
BRANCH  73  92
ATOM     92  C   UNL     1     147.889 167.365 193.931  0.00  0.00    -0.026 C 
ATOM     93  H   UNL     1     147.282 168.189 194.311  0.00  0.00    +0.029 HD
ATOM     94  H   UNL     1     148.315 166.849 194.799  0.00  0.00    +0.029 HD
BRANCH  92  95
ATOM     95  C   UNL     1     146.990 166.397 193.148  0.00  0.00    -0.045 C 
ATOM     96  H   UNL     1     147.516 165.439 193.041  0.00  0.00    +0.027 HD
ATOM     97  H   UNL     1     146.841 166.787 192.137  0.00  0.00    +0.027 HD
BRANCH  95  98
ATOM     98  C   UNL     1     145.601 166.105 193.753  0.00  0.00    -0.025 C 
ATOM     99  H   UNL     1     145.309 167.025 194.271  0.00  0.00    +0.034 HD
BRANCH  98 100
ATOM    100  C   UNL     1     145.646 165.005 194.813  0.00  0.00    -0.059 C 
ATOM    101  H   UNL     1     146.094 165.386 195.738  0.00  0.00    +0.024 HD
ATOM    102  H   UNL     1     146.253 164.161 194.475  0.00  0.00    +0.024 HD
ATOM    103  H   UNL     1     144.651 164.628 195.066  0.00  0.00    +0.024 HD
ENDBRANCH  98 100
BRANCH  98 104
ATOM    104  C   UNL     1     144.578 165.750 192.691  0.00  0.00    -0.080 C 
ATOM    105  C   UNL     1     143.259 166.039 192.673  0.00  0.00    -0.048 C 
ATOM    106  H   UNL     1     145.000 165.182 191.866  0.00  0.00    +0.058 HD
BRANCH 105 107
ATOM    107  C   UNL     1     142.540 166.776 193.784  0.00  0.00    -0.041 C 
ATOM    108  H   UNL     1     141.457 166.795 193.666  0.00  0.00    +0.028 HD
ATOM    109  H   UNL     1     142.765 166.315 194.752  0.00  0.00    +0.028 HD
ATOM    110  H   UNL     1     142.868 167.820 193.820  0.00  0.00    +0.028 HD
ENDBRANCH 105 107
BRANCH 105 111
ATOM    111  C   UNL     1     142.326 165.640 191.537  0.00  0.00    +0.073 C 
ATOM    112  H   UNL     1     141.487 165.076 191.960  0.00  0.00    +0.064 HD
BRANCH 111 113
ATOM    113  C   UNL     1     142.911 164.810 190.392  0.00  0.00    -0.035 C 
ATOM    114  H   UNL     1     142.718 163.741 190.531  0.00  0.00    +0.026 HD
ATOM    115  H   UNL     1     142.462 165.125 189.440  0.00  0.00    +0.026 HD
ATOM    116  H   UNL     1     143.989 164.970 190.295  0.00  0.00    +0.026 HD
ENDBRANCH 111 113
BRANCH 111 117
ATOM    117  O   UNL     1     141.785 166.832 190.968  0.00  0.00    -0.388 OA
ATOM    118  H   UNL     1     141.261 167.262 191.665  0.00  0.00    +0.210 HD
ENDBRANCH 111 117
ENDBRANCH 105 111
ENDBRANCH  98 104
ENDBRANCH  95  98
ENDBRANCH  92  95
ENDBRANCH  73  92
ENDBRANCH  61  64
ENDBRANCH   1  61
TORSDOF 27
ENDMDL
MODEL 8
REMARK VINA RESULT:      -5.8      6.289      8.811
REMARK  Name = Bistramide A_conf3
REMARK  27 active torsions:
REMARK  status: ('A' for Active; 'I' for Inactive)
REMARK    1  A    between atoms: C_1  and  C_2
REMARK    2  A    between atoms: C_3  and  C_4
REMARK    3  A    between atoms: C_4  and  C_6
REMARK    4  A    between atoms: C_6  and  C_7
REMARK    5  A    between atoms: C_10  and  C_50
REMARK    6  A    between atoms: C_11  and  C_13
REMARK    7  A    between atoms: C_13  and  C_14
REMARK    8  A    between atoms: N_16  and  C_17
REMARK    9  A    between atoms: C_17  and  C_18
REMARK   10  A    between atoms: C_18  and  C_19
REMARK   11  A    between atoms: C_18  and  O_49
REMARK   12  A    between atoms: C_19  and  C_20
REMARK   13  A    between atoms: C_19  and  C_21
REMARK   14  A    between atoms: N_23  and  C_24
REMARK   15  A    between atoms: C_24  and  C_25
REMARK   16  A    between atoms: C_25  and  C_26
REMARK   17  A    between atoms: C_26  and  C_27
REMARK   18  A    between atoms: C_28  and  C_48
REMARK   19  A    between atoms: C_36  and  C_38
REMARK   20  A    between atoms: C_38  and  C_39
REMARK   21  A    between atoms: C_39  and  C_40
REMARK   22  A    between atoms: C_40  and  C_41
REMARK   23  A    between atoms: C_40  and  C_42
REMARK   24  A    between atoms: C_43  and  C_44
REMARK   25  A    between atoms: C_43  and  C_45
REMARK   26  A    between atoms: C_45  and  C_46
REMARK   27  A    between atoms: C_45  and  O_47
REMARK                            x       y       z     vdW  Elec       q    Type
REMARK                         _______ _______ _______ _____ _____    ______ ____
ROOT
ATOM      1  C   UNL     1     152.431 164.105 189.428  0.00  0.00    -0.035 C 
ATOM      2  H   UNL     1     152.834 163.830 190.409  0.00  0.00    +0.028 HD
ATOM      3  H   UNL     1     151.450 163.626 189.347  0.00  0.00    +0.028 HD
ENDROOT
BRANCH   1   4
ATOM      4  C   UNL     1     153.344 163.540 188.338  0.00  0.00    +0.012 C 
ATOM      5  H   UNL     1     154.020 162.795 188.768  0.00  0.00    +0.046 HD
ATOM      6  H   UNL     1     152.754 163.045 187.558  0.00  0.00    +0.046 HD
BRANCH   4   9
ATOM      7  C   UNL     1     155.520 164.586 187.797  0.00  0.00    +0.218 C 
ATOM      8  O   UNL     1     156.158 163.724 188.401  0.00  0.00    -0.275 OA
ATOM      9  N   UNL     1     154.141 164.563 187.693  0.00  0.00    -0.315 N 
ATOM     10  H   UNL     1     153.660 165.302 187.193  0.00  0.00    +0.149 HD
BRANCH   7  11
ATOM     11  C   UNL     1     156.153 165.810 187.138  0.00  0.00    +0.060 C 
ATOM     12  H   UNL     1     156.561 166.431 187.948  0.00  0.00    +0.042 HD
BRANCH  11  13
ATOM     13  C   UNL     1     157.298 165.304 186.259  0.00  0.00    -0.052 C 
ATOM     14  H   UNL     1     157.245 164.218 186.119  0.00  0.00    +0.024 HD
ATOM     15  H   UNL     1     157.302 165.790 185.283  0.00  0.00    +0.024 HD
ATOM     16  H   UNL     1     158.276 165.513 186.700  0.00  0.00    +0.024 HD
ENDBRANCH  11  13
BRANCH  11  17
ATOM     17  C   UNL     1     155.102 166.638 186.359  0.00  0.00    +0.081 C 
ATOM     18  H   UNL     1     154.253 166.008 186.073  0.00  0.00    +0.062 HD
BRANCH  17  19
ATOM     19  C   UNL     1     155.638 167.354 185.103  0.00  0.00    +0.038 C 
ATOM     20  H   UNL     1     156.388 166.716 184.615  0.00  0.00    +0.049 HD
ATOM     21  H   UNL     1     154.827 167.458 184.367  0.00  0.00    +0.049 HD
BRANCH  19  24
ATOM     22  C   UNL     1     157.477 168.950 184.710  0.00  0.00    +0.216 C 
ATOM     23  O   UNL     1     158.036 168.212 183.906  0.00  0.00    -0.276 OA
ATOM     24  N   UNL     1     156.293 168.627 185.338  0.00  0.00    -0.313 N 
ATOM     25  H   UNL     1     155.918 169.247 186.045  0.00  0.00    +0.149 HD
BRANCH  22  26
ATOM     26  C   UNL     1     158.032 170.298 185.114  0.00  0.00    +0.050 C 
ATOM     27  H   UNL     1     159.108 170.291 184.898  0.00  0.00    +0.038 HD
ATOM     28  H   UNL     1     157.945 170.447 186.196  0.00  0.00    +0.038 HD
BRANCH  26  33
ATOM     29  C   UNL     1     156.151 171.823 182.276  0.00  0.00    +0.066 C 
ATOM     30  C   UNL     1     156.163 173.265 182.790  0.00  0.00    -0.026 C 
ATOM     31  C   UNL     1     157.568 173.700 183.200  0.00  0.00    -0.046 C 
ATOM     32  C   UNL     1     158.343 172.585 183.939  0.00  0.00    -0.017 C 
ATOM     33  C   UNL     1     157.375 171.446 184.340  0.00  0.00    +0.070 C 
ATOM     34  O   UNL     1     156.756 170.877 183.173  0.00  0.00    -0.372 OA
ATOM     35  H   UNL     1     156.753 171.784 181.359  0.00  0.00    +0.060 HD
ATOM     36  H   UNL     1     155.773 173.956 182.036  0.00  0.00    +0.029 HD
ATOM     37  H   UNL     1     155.498 173.361 183.657  0.00  0.00    +0.029 HD
ATOM     38  H   UNL     1     158.114 174.038 182.309  0.00  0.00    +0.027 HD
ATOM     39  H   UNL     1     157.479 174.581 183.854  0.00  0.00    +0.027 HD
ATOM     40  H   UNL     1     158.776 173.031 184.844  0.00  0.00    +0.032 HD
ATOM     41  H   UNL     1     156.572 171.851 184.973  0.00  0.00    +0.060 HD
BRANCH  32  42
ATOM     42  C   UNL     1     159.512 172.106 183.069  0.00  0.00    -0.060 C 
ATOM     43  H   UNL     1     159.456 171.031 182.874  0.00  0.00    +0.023 HD
ATOM     44  H   UNL     1     159.534 172.618 182.103  0.00  0.00    +0.023 HD
ATOM     45  H   UNL     1     160.471 172.281 183.566  0.00  0.00    +0.023 HD
ENDBRANCH  32  42
BRANCH  29  46
ATOM     46  C   UNL     1     154.741 171.327 181.970  0.00  0.00    +0.036 C 
ATOM     47  H   UNL     1     154.116 171.356 182.871  0.00  0.00    +0.037 HD
ATOM     48  H   UNL     1     154.740 170.269 181.681  0.00  0.00    +0.037 HD
BRANCH  46  49
ATOM     49  C   UNL     1     154.076 172.162 180.900  0.00  0.00    +0.158 C 
ATOM     50  O   UNL     1     154.587 172.289 179.787  0.00  0.00    -0.293 OA
BRANCH  49  52
ATOM     51  C   UNL     1     152.574 173.927 181.889  0.00  0.00    -0.084 C 
ATOM     52  C   UNL     1     152.767 172.822 181.149  0.00  0.00    -0.023 C 
ATOM     53  H   UNL     1     153.397 174.437 182.385  0.00  0.00    +0.057 HD
ATOM     54  H   UNL     1     151.931 172.330 180.656  0.00  0.00    +0.065 HD
BRANCH  51  55
ATOM     55  C   UNL     1     151.224 174.533 182.099  0.00  0.00    -0.046 C 
ATOM     56  H   UNL     1     151.278 175.613 181.951  0.00  0.00    +0.027 HD
ATOM     57  H   UNL     1     150.882 174.332 183.120  0.00  0.00    +0.027 HD
ATOM     58  H   UNL     1     150.480 174.132 181.403  0.00  0.00    +0.027 HD
ENDBRANCH  51  55
ENDBRANCH  49  52
ENDBRANCH  46  49
ENDBRANCH  29  46
ENDBRANCH  26  33
ENDBRANCH  22  26
ENDBRANCH  19  24
ENDBRANCH  17  19
BRANCH  17  59
ATOM     59  O   UNL     1     154.581 167.683 187.204  0.00  0.00    -0.390 OA
ATOM     60  H   UNL     1     153.962 167.293 187.845  0.00  0.00    +0.210 HD
ENDBRANCH  17  59
ENDBRANCH  11  17
ENDBRANCH   7  11
ENDBRANCH   4   9
ENDBRANCH   1   4
BRANCH   1  61
ATOM     61  C   UNL     1     152.260 165.628 189.333  0.00  0.00    -0.025 C 
ATOM     62  H   UNL     1     151.312 165.845 188.828  0.00  0.00    +0.029 HD
ATOM     63  H   UNL     1     153.063 166.042 188.709  0.00  0.00    +0.029 HD
BRANCH  61  64
ATOM     64  C   UNL     1     152.310 166.300 190.714  0.00  0.00    +0.065 C 
ATOM     65  C   UNL     1     153.557 165.892 191.529  0.00  0.00    -0.017 C 
ATOM     66  C   UNL     1     153.466 166.444 192.961  0.00  0.00    -0.043 C 
ATOM     67  C   UNL     1     152.120 166.093 193.595  0.00  0.00    +0.002 C 
ATOM     68  C   UNL     1     150.956 166.520 192.693  0.00  0.00    +0.171 C 
ATOM     69  O   UNL     1     151.123 165.908 191.413  0.00  0.00    -0.345 OA
ATOM     70  C   UNL     1     149.632 166.005 193.277  0.00  0.00    +0.002 C 
ATOM     71  C   UNL     1     148.443 166.419 192.403  0.00  0.00    -0.046 C 
ATOM     72  C   UNL     1     148.680 167.764 191.720  0.00  0.00    -0.026 C 
ATOM     73  C   UNL     1     149.699 168.595 192.498  0.00  0.00    +0.062 C 
ATOM     74  O   UNL     1     150.975 167.949 192.587  0.00  0.00    -0.345 OA
ATOM     75  H   UNL     1     152.300 167.383 190.560  0.00  0.00    +0.060 HD
ATOM     76  H   UNL     1     153.582 164.798 191.602  0.00  0.00    +0.032 HD
ATOM     77  H   UNL     1     154.273 166.036 193.578  0.00  0.00    +0.027 HD
ATOM     78  H   UNL     1     153.598 167.534 192.953  0.00  0.00    +0.027 HD
ATOM     79  H   UNL     1     152.046 166.580 194.574  0.00  0.00    +0.032 HD
ATOM     80  H   UNL     1     152.095 165.007 193.754  0.00  0.00    +0.032 HD
ATOM     81  H   UNL     1     149.490 166.424 194.283  0.00  0.00    +0.032 HD
ATOM     82  H   UNL     1     149.635 164.911 193.371  0.00  0.00    +0.032 HD
ATOM     83  H   UNL     1     148.244 165.659 191.636  0.00  0.00    +0.027 HD
ATOM     84  H   UNL     1     147.541 166.462 193.027  0.00  0.00    +0.027 HD
ATOM     85  H   UNL     1     149.052 167.568 190.708  0.00  0.00    +0.029 HD
ATOM     86  H   UNL     1     147.729 168.295 191.605  0.00  0.00    +0.029 HD
ATOM     87  H   UNL     1     149.333 168.727 193.527  0.00  0.00    +0.060 HD
BRANCH  65  88
ATOM     88  C   UNL     1     154.865 166.359 190.886  0.00  0.00    -0.060 C 
ATOM     89  H   UNL     1     154.719 166.592 189.828  0.00  0.00    +0.023 HD
ATOM     90  H   UNL     1     155.638 165.585 190.954  0.00  0.00    +0.023 HD
ATOM     91  H   UNL     1     155.247 167.265 191.373  0.00  0.00    +0.023 HD
ENDBRANCH  65  88
BRANCH  73  92
ATOM     92  C   UNL     1     149.915 170.002 191.919  0.00  0.00    -0.026 C 
ATOM     93  H   UNL     1     149.685 169.958 190.852  0.00  0.00    +0.029 HD
ATOM     94  H   UNL     1     150.977 170.261 192.010  0.00  0.00    +0.029 HD
BRANCH  92  95
ATOM     95  C   UNL     1     149.060 171.097 192.574  0.00  0.00    -0.045 C 
ATOM     96  H   UNL     1     149.639 171.551 193.391  0.00  0.00    +0.027 HD
ATOM     97  H   UNL     1     148.181 170.636 193.032  0.00  0.00    +0.027 HD
BRANCH  95  98
ATOM     98  C   UNL     1     148.575 172.236 191.653  0.00  0.00    -0.025 C 
ATOM     99  H   UNL     1     149.116 172.099 190.711  0.00  0.00    +0.034 HD
BRANCH  98 100
ATOM    100  C   UNL     1     148.962 173.617 192.180  0.00  0.00    -0.059 C 
ATOM    101  H   UNL     1     148.114 174.307 192.099  0.00  0.00    +0.024 HD
ATOM    102  H   UNL     1     149.788 174.039 191.603  0.00  0.00    +0.024 HD
ATOM    103  H   UNL     1     149.260 173.593 193.232  0.00  0.00    +0.024 HD
ENDBRANCH  98 100
BRANCH  98 104
ATOM    104  C   UNL     1     147.078 172.180 191.415  0.00  0.00    -0.080 C 
ATOM    105  C   UNL     1     146.399 171.397 190.548  0.00  0.00    -0.048 C 
ATOM    106  H   UNL     1     146.522 172.880 192.032  0.00  0.00    +0.058 HD
BRANCH 105 107
ATOM    107  C   UNL     1     147.059 170.420 189.598  0.00  0.00    -0.041 C 
ATOM    108  H   UNL     1     147.886 169.867 190.043  0.00  0.00    +0.028 HD
ATOM    109  H   UNL     1     146.326 169.693 189.232  0.00  0.00    +0.028 HD
ATOM    110  H   UNL     1     147.471 170.952 188.733  0.00  0.00    +0.028 HD
ENDBRANCH 105 107
BRANCH 105 111
ATOM    111  C   UNL     1     144.883 171.418 190.406  0.00  0.00    +0.073 C 
ATOM    112  H   UNL     1     144.637 171.525 189.344  0.00  0.00    +0.064 HD
BRANCH 111 113
ATOM    113  C   UNL     1     144.110 172.495 191.170  0.00  0.00    -0.035 C 
ATOM    114  H   UNL     1     144.303 172.441 192.247  0.00  0.00    +0.026 HD
ATOM    115  H   UNL     1     144.409 173.489 190.812  0.00  0.00    +0.026 HD
ATOM    116  H   UNL     1     143.033 172.413 190.994  0.00  0.00    +0.026 HD
ENDBRANCH 111 113
BRANCH 111 117
ATOM    117  O   UNL     1     144.382 170.151 190.828  0.00  0.00    -0.388 OA
ATOM    118  H   UNL     1     143.725 170.326 191.522  0.00  0.00    +0.210 HD
ENDBRANCH 111 117
ENDBRANCH 105 111
ENDBRANCH  98 104
ENDBRANCH  95  98
ENDBRANCH  92  95
ENDBRANCH  73  92
ENDBRANCH  61  64
ENDBRANCH   1  61
TORSDOF 27
ENDMDL
MODEL 9
REMARK VINA RESULT:      -5.8      5.481      8.216
REMARK  Name = Bistramide A_conf3
REMARK  27 active torsions:
REMARK  status: ('A' for Active; 'I' for Inactive)
REMARK    1  A    between atoms: C_1  and  C_2
REMARK    2  A    between atoms: C_3  and  C_4
REMARK    3  A    between atoms: C_4  and  C_6
REMARK    4  A    between atoms: C_6  and  C_7
REMARK    5  A    between atoms: C_10  and  C_50
REMARK    6  A    between atoms: C_11  and  C_13
REMARK    7  A    between atoms: C_13  and  C_14
REMARK    8  A    between atoms: N_16  and  C_17
REMARK    9  A    between atoms: C_17  and  C_18
REMARK   10  A    between atoms: C_18  and  C_19
REMARK   11  A    between atoms: C_18  and  O_49
REMARK   12  A    between atoms: C_19  and  C_20
REMARK   13  A    between atoms: C_19  and  C_21
REMARK   14  A    between atoms: N_23  and  C_24
REMARK   15  A    between atoms: C_24  and  C_25
REMARK   16  A    between atoms: C_25  and  C_26
REMARK   17  A    between atoms: C_26  and  C_27
REMARK   18  A    between atoms: C_28  and  C_48
REMARK   19  A    between atoms: C_36  and  C_38
REMARK   20  A    between atoms: C_38  and  C_39
REMARK   21  A    between atoms: C_39  and  C_40
REMARK   22  A    between atoms: C_40  and  C_41
REMARK   23  A    between atoms: C_40  and  C_42
REMARK   24  A    between atoms: C_43  and  C_44
REMARK   25  A    between atoms: C_43  and  C_45
REMARK   26  A    between atoms: C_45  and  C_46
REMARK   27  A    between atoms: C_45  and  O_47
REMARK                            x       y       z     vdW  Elec       q    Type
REMARK                         _______ _______ _______ _____ _____    ______ ____
ROOT
ATOM      1  C   UNL     1     152.446 166.594 193.626  0.00  0.00    -0.035 C 
ATOM      2  H   UNL     1     152.111 167.633 193.530  0.00  0.00    +0.028 HD
ATOM      3  H   UNL     1     152.863 166.491 194.634  0.00  0.00    +0.028 HD
ENDROOT
BRANCH   1   4
ATOM      4  C   UNL     1     153.557 166.332 192.608  0.00  0.00    +0.012 C 
ATOM      5  H   UNL     1     154.407 166.991 192.807  0.00  0.00    +0.046 HD
ATOM      6  H   UNL     1     153.911 165.298 192.680  0.00  0.00    +0.046 HD
BRANCH   4   9
ATOM      7  C   UNL     1     153.311 165.591 190.260  0.00  0.00    +0.218 C 
ATOM      8  O   UNL     1     153.814 164.491 190.486  0.00  0.00    -0.275 OA
ATOM      9  N   UNL     1     153.123 166.546 191.243  0.00  0.00    -0.315 N 
ATOM     10  H   UNL     1     152.713 167.442 191.003  0.00  0.00    +0.149 HD
BRANCH   7  11
ATOM     11  C   UNL     1     152.884 166.064 188.871  0.00  0.00    +0.060 C 
ATOM     12  H   UNL     1     152.727 165.163 188.263  0.00  0.00    +0.042 HD
BRANCH  11  13
ATOM     13  C   UNL     1     151.554 166.803 189.039  0.00  0.00    -0.052 C 
ATOM     14  H   UNL     1     151.422 167.160 190.068  0.00  0.00    +0.024 HD
ATOM     15  H   UNL     1     151.474 167.648 188.355  0.00  0.00    +0.024 HD
ATOM     16  H   UNL     1     150.699 166.160 188.821  0.00  0.00    +0.024 HD
ENDBRANCH  11  13
BRANCH  11  17
ATOM     17  C   UNL     1     153.984 166.926 188.207  0.00  0.00    +0.081 C 
ATOM     18  H   UNL     1     153.651 167.965 188.110  0.00  0.00    +0.062 HD
BRANCH  17  19
ATOM     19  C   UNL     1     154.461 166.425 186.828  0.00  0.00    +0.038 C 
ATOM     20  H   UNL     1     154.373 165.330 186.791  0.00  0.00    +0.049 HD
ATOM     21  H   UNL     1     153.780 166.795 186.048  0.00  0.00    +0.049 HD
BRANCH  19  24
ATOM     22  C   UNL     1     156.770 165.718 186.324  0.00  0.00    +0.216 C 
ATOM     23  O   UNL     1     156.495 164.525 186.412  0.00  0.00    -0.276 OA
ATOM     24  N   UNL     1     155.842 166.722 186.496  0.00  0.00    -0.313 N 
ATOM     25  H   UNL     1     156.144 167.689 186.482  0.00  0.00    +0.149 HD
BRANCH  22  26
ATOM     26  C   UNL     1     158.165 166.222 186.027  0.00  0.00    +0.050 C 
ATOM     27  H   UNL     1     158.557 165.636 185.186  0.00  0.00    +0.038 HD
ATOM     28  H   UNL     1     158.838 166.024 186.869  0.00  0.00    +0.038 HD
BRANCH  26  33
ATOM     29  C   UNL     1     157.539 169.145 183.797  0.00  0.00    +0.066 C 
ATOM     30  C   UNL     1     158.078 170.226 184.739  0.00  0.00    -0.026 C 
ATOM     31  C   UNL     1     159.458 169.857 185.279  0.00  0.00    -0.046 C 
ATOM     32  C   UNL     1     159.575 168.358 185.636  0.00  0.00    -0.017 C 
ATOM     33  C   UNL     1     158.171 167.706 185.649  0.00  0.00    +0.070 C 
ATOM     34  O   UNL     1     157.552 167.822 184.356  0.00  0.00    -0.372 OA
ATOM     35  H   UNL     1     158.198 169.101 182.920  0.00  0.00    +0.060 HD
ATOM     36  H   UNL     1     158.130 171.197 184.238  0.00  0.00    +0.029 HD
ATOM     37  H   UNL     1     157.393 170.361 185.586  0.00  0.00    +0.029 HD
ATOM     38  H   UNL     1     160.221 170.151 184.545  0.00  0.00    +0.027 HD
ATOM     39  H   UNL     1     159.650 170.465 186.177  0.00  0.00    +0.027 HD
ATOM     40  H   UNL     1     160.016 168.294 186.640  0.00  0.00    +0.032 HD
ATOM     41  H   UNL     1     157.528 168.231 186.369  0.00  0.00    +0.060 HD
BRANCH  32  42
ATOM     42  C   UNL     1     160.551 167.673 184.671  0.00  0.00    -0.060 C 
ATOM     43  H   UNL     1     160.431 168.039 183.648  0.00  0.00    +0.023 HD
ATOM     44  H   UNL     1     161.592 167.837 184.963  0.00  0.00    +0.023 HD
ATOM     45  H   UNL     1     160.377 166.593 184.635  0.00  0.00    +0.023 HD
ENDBRANCH  32  42
BRANCH  29  46
ATOM     46  C   UNL     1     156.113 169.435 183.337  0.00  0.00    +0.036 C 
ATOM     47  H   UNL     1     155.499 169.784 184.176  0.00  0.00    +0.037 HD
ATOM     48  H   UNL     1     155.607 168.523 182.998  0.00  0.00    +0.037 HD
BRANCH  46  49
ATOM     49  C   UNL     1     156.080 170.486 182.251  0.00  0.00    +0.158 C 
ATOM     50  O   UNL     1     157.026 170.625 181.475  0.00  0.00    -0.293 OA
BRANCH  49  52
ATOM     51  C   UNL     1     154.781 172.634 182.465  0.00  0.00    -0.084 C 
ATOM     52  C   UNL     1     154.889 171.356 182.066  0.00  0.00    -0.023 C 
ATOM     53  H   UNL     1     155.592 173.145 182.979  0.00  0.00    +0.057 HD
ATOM     54  H   UNL     1     154.068 170.864 181.546  0.00  0.00    +0.065 HD
BRANCH  51  55
ATOM     55  C   UNL     1     153.545 173.447 182.246  0.00  0.00    -0.046 C 
ATOM     56  H   UNL     1     152.993 173.537 183.183  0.00  0.00    +0.027 HD
ATOM     57  H   UNL     1     152.906 172.958 181.503  0.00  0.00    +0.027 HD
ATOM     58  H   UNL     1     153.775 174.456 181.889  0.00  0.00    +0.027 HD
ENDBRANCH  51  55
ENDBRANCH  49  52
ENDBRANCH  46  49
ENDBRANCH  29  46
ENDBRANCH  26  33
ENDBRANCH  22  26
ENDBRANCH  19  24
ENDBRANCH  17  19
BRANCH  17  59
ATOM     59  O   UNL     1     155.161 166.941 189.038  0.00  0.00    -0.390 OA
ATOM     60  H   UNL     1     155.940 167.118 188.482  0.00  0.00    +0.210 HD
ENDBRANCH  17  59
ENDBRANCH  11  17
ENDBRANCH   7  11
ENDBRANCH   4   9
ENDBRANCH   1   4
BRANCH   1  61
ATOM     61  C   UNL     1     151.256 165.636 193.471  0.00  0.00    -0.025 C 
ATOM     62  H   UNL     1     151.421 164.763 194.111  0.00  0.00    +0.029 HD
ATOM     63  H   UNL     1     151.216 165.277 192.434  0.00  0.00    +0.029 HD
BRANCH  61  64
ATOM     64  C   UNL     1     149.921 166.317 193.811  0.00  0.00    +0.065 C 
ATOM     65  C   UNL     1     149.225 165.683 195.035  0.00  0.00    -0.017 C 
ATOM     66  C   UNL     1     147.819 166.277 195.220  0.00  0.00    -0.043 C 
ATOM     67  C   UNL     1     147.029 166.224 193.912  0.00  0.00    +0.002 C 
ATOM     68  C   UNL     1     147.822 166.857 192.762  0.00  0.00    +0.171 C 
ATOM     69  O   UNL     1     149.082 166.193 192.657  0.00  0.00    -0.345 OA
ATOM     70  C   UNL     1     147.076 166.638 191.438  0.00  0.00    +0.002 C 
ATOM     71  C   UNL     1     147.837 167.265 190.263  0.00  0.00    -0.046 C 
ATOM     72  C   UNL     1     148.604 168.516 190.686  0.00  0.00    -0.026 C 
ATOM     73  C   UNL     1     147.979 169.140 191.932  0.00  0.00    +0.062 C 
ATOM     74  O   UNL     1     147.996 168.250 193.056  0.00  0.00    -0.345 OA
ATOM     75  H   UNL     1     150.123 167.376 194.000  0.00  0.00    +0.060 HD
ATOM     76  H   UNL     1     149.104 164.609 194.848  0.00  0.00    +0.032 HD
ATOM     77  H   UNL     1     147.274 165.727 195.994  0.00  0.00    +0.027 HD
ATOM     78  H   UNL     1     147.893 167.317 195.567  0.00  0.00    +0.027 HD
ATOM     79  H   UNL     1     146.072 166.739 194.049  0.00  0.00    +0.032 HD
ATOM     80  H   UNL     1     146.818 165.170 193.689  0.00  0.00    +0.032 HD
ATOM     81  H   UNL     1     146.082 167.101 191.498  0.00  0.00    +0.032 HD
ATOM     82  H   UNL     1     146.932 165.569 191.232  0.00  0.00    +0.032 HD
ATOM     83  H   UNL     1     148.541 166.543 189.831  0.00  0.00    +0.027 HD
ATOM     84  H   UNL     1     147.123 167.506 189.466  0.00  0.00    +0.027 HD
ATOM     85  H   UNL     1     149.640 168.223 190.893  0.00  0.00    +0.029 HD
ATOM     86  H   UNL     1     148.641 169.227 189.854  0.00  0.00    +0.029 HD
ATOM     87  H   UNL     1     146.924 169.368 191.720  0.00  0.00    +0.060 HD
BRANCH  65  88
ATOM     88  C   UNL     1     150.026 165.857 196.328  0.00  0.00    -0.060 C 
ATOM     89  H   UNL     1     151.086 166.012 196.114  0.00  0.00    +0.023 HD
ATOM     90  H   UNL     1     149.940 164.972 196.969  0.00  0.00    +0.023 HD
ATOM     91  H   UNL     1     149.675 166.727 196.899  0.00  0.00    +0.023 HD
ENDBRANCH  65  88
BRANCH  73  92
ATOM     92  C   UNL     1     148.643 170.459 192.359  0.00  0.00    -0.026 C 
ATOM     93  H   UNL     1     149.606 170.211 192.810  0.00  0.00    +0.029 HD
ATOM     94  H   UNL     1     148.031 170.926 193.139  0.00  0.00    +0.029 HD
BRANCH  92  95
ATOM     95  C   UNL     1     148.866 171.457 191.213  0.00  0.00    -0.045 C 
ATOM     96  H   UNL     1     148.711 170.935 190.259  0.00  0.00    +0.027 HD
ATOM     97  H   UNL     1     149.908 171.786 191.224  0.00  0.00    +0.027 HD
BRANCH  95  98
ATOM     98  C   UNL     1     147.970 172.714 191.212  0.00  0.00    -0.025 C 
ATOM     99  H   UNL     1     148.188 173.226 190.269  0.00  0.00    +0.034 HD
BRANCH  98 100
ATOM    100  C   UNL     1     148.334 173.690 192.330  0.00  0.00    -0.059 C 
ATOM    101  H   UNL     1     147.440 173.964 192.902  0.00  0.00    +0.024 HD
ATOM    102  H   UNL     1     148.761 174.610 191.924  0.00  0.00    +0.024 HD
ATOM    103  H   UNL     1     149.053 173.265 193.037  0.00  0.00    +0.024 HD
ENDBRANCH  98 100
BRANCH  98 104
ATOM    104  C   UNL     1     146.497 172.366 191.295  0.00  0.00    -0.080 C 
ATOM    105  C   UNL     1     145.674 171.973 190.298  0.00  0.00    -0.048 C 
ATOM    106  H   UNL     1     146.090 172.470 192.297  0.00  0.00    +0.058 HD
BRANCH 105 107
ATOM    107  C   UNL     1     146.103 171.842 188.852  0.00  0.00    -0.041 C 
ATOM    108  H   UNL     1     146.825 172.596 188.539  0.00  0.00    +0.028 HD
ATOM    109  H   UNL     1     146.548 170.856 188.676  0.00  0.00    +0.028 HD
ATOM    110  H   UNL     1     145.237 171.947 188.189  0.00  0.00    +0.028 HD
ENDBRANCH 105 107
BRANCH 105 111
ATOM    111  C   UNL     1     144.204 171.634 190.506  0.00  0.00    +0.073 C 
ATOM    112  H   UNL     1     143.731 171.530 189.523  0.00  0.00    +0.064 HD
BRANCH 111 113
ATOM    113  C   UNL     1     143.356 172.609 191.325  0.00  0.00    -0.035 C 
ATOM    114  H   UNL     1     142.287 172.393 191.228  0.00  0.00    +0.026 HD
ATOM    115  H   UNL     1     143.632 172.537 192.386  0.00  0.00    +0.026 HD
ATOM    116  H   UNL     1     143.541 173.646 191.027  0.00  0.00    +0.026 HD
ENDBRANCH 111 113
BRANCH 111 117
ATOM    117  O   UNL     1     144.129 170.361 191.145  0.00  0.00    -0.388 OA
ATOM    118  H   UNL     1     144.902 169.851 190.847  0.00  0.00    +0.210 HD
ENDBRANCH 111 117
ENDBRANCH 105 111
ENDBRANCH  98 104
ENDBRANCH  95  98
ENDBRANCH  92  95
ENDBRANCH  73  92
ENDBRANCH  61  64
ENDBRANCH   1  61
TORSDOF 27
ENDMDL
MODEL 10
REMARK VINA RESULT:      -5.7      3.982     11.327
REMARK  Name = Bistramide A_conf3
REMARK  27 active torsions:
REMARK  status: ('A' for Active; 'I' for Inactive)
REMARK    1  A    between atoms: C_1  and  C_2
REMARK    2  A    between atoms: C_3  and  C_4
REMARK    3  A    between atoms: C_4  and  C_6
REMARK    4  A    between atoms: C_6  and  C_7
REMARK    5  A    between atoms: C_10  and  C_50
REMARK    6  A    between atoms: C_11  and  C_13
REMARK    7  A    between atoms: C_13  and  C_14
REMARK    8  A    between atoms: N_16  and  C_17
REMARK    9  A    between atoms: C_17  and  C_18
REMARK   10  A    between atoms: C_18  and  C_19
REMARK   11  A    between atoms: C_18  and  O_49
REMARK   12  A    between atoms: C_19  and  C_20
REMARK   13  A    between atoms: C_19  and  C_21
REMARK   14  A    between atoms: N_23  and  C_24
REMARK   15  A    between atoms: C_24  and  C_25
REMARK   16  A    between atoms: C_25  and  C_26
REMARK   17  A    between atoms: C_26  and  C_27
REMARK   18  A    between atoms: C_28  and  C_48
REMARK   19  A    between atoms: C_36  and  C_38
REMARK   20  A    between atoms: C_38  and  C_39
REMARK   21  A    between atoms: C_39  and  C_40
REMARK   22  A    between atoms: C_40  and  C_41
REMARK   23  A    between atoms: C_40  and  C_42
REMARK   24  A    between atoms: C_43  and  C_44
REMARK   25  A    between atoms: C_43  and  C_45
REMARK   26  A    between atoms: C_45  and  C_46
REMARK   27  A    between atoms: C_45  and  O_47
REMARK                            x       y       z     vdW  Elec       q    Type
REMARK                         _______ _______ _______ _____ _____    ______ ____
ROOT
ATOM      1  C   UNL     1     150.481 166.498 189.272  0.00  0.00    -0.035 C 
ATOM      2  H   UNL     1     150.661 167.577 189.336  0.00  0.00    +0.028 HD
ATOM      3  H   UNL     1     151.092 166.127 188.444  0.00  0.00    +0.028 HD
ENDROOT
BRANCH   1   4
ATOM      4  C   UNL     1     149.007 166.258 188.941  0.00  0.00    +0.012 C 
ATOM      5  H   UNL     1     148.923 165.543 188.117  0.00  0.00    +0.046 HD
ATOM      6  H   UNL     1     148.480 165.837 189.804  0.00  0.00    +0.046 HD
BRANCH   4   9
ATOM      7  C   UNL     1     147.843 167.675 187.279  0.00  0.00    +0.218 C 
ATOM      8  O   UNL     1     147.938 166.827 186.393  0.00  0.00    -0.275 OA
ATOM      9  N   UNL     1     148.316 167.474 188.563  0.00  0.00    -0.315 N 
ATOM     10  H   UNL     1     148.223 168.208 189.256  0.00  0.00    +0.149 HD
BRANCH   7  11
ATOM     11  C   UNL     1     147.249 169.066 187.068  0.00  0.00    +0.060 C 
ATOM     12  H   UNL     1     147.757 169.739 187.773  0.00  0.00    +0.042 HD
BRANCH  11  13
ATOM     13  C   UNL     1     147.583 169.484 185.634  0.00  0.00    -0.052 C 
ATOM     14  H   UNL     1     148.614 169.849 185.554  0.00  0.00    +0.024 HD
ATOM     15  H   UNL     1     147.441 168.662 184.932  0.00  0.00    +0.024 HD
ATOM     16  H   UNL     1     146.938 170.292 185.283  0.00  0.00    +0.024 HD
ENDBRANCH  11  13
BRANCH  11  17
ATOM     17  C   UNL     1     145.731 169.084 187.372  0.00  0.00    +0.081 C 
ATOM     18  H   UNL     1     145.175 169.499 186.526  0.00  0.00    +0.062 HD
BRANCH  17  19
ATOM     19  C   UNL     1     145.332 169.845 188.653  0.00  0.00    +0.038 C 
ATOM     20  H   UNL     1     144.608 170.631 188.397  0.00  0.00    +0.049 HD
ATOM     21  H   UNL     1     144.792 169.166 189.329  0.00  0.00    +0.049 HD
BRANCH  19  24
ATOM     22  C   UNL     1     146.175 171.324 190.439  0.00  0.00    +0.216 C 
ATOM     23  O   UNL     1     145.057 171.508 190.907  0.00  0.00    -0.276 OA
ATOM     24  N   UNL     1     146.415 170.516 189.348  0.00  0.00    -0.313 N 
ATOM     25  H   UNL     1     147.351 170.460 188.964  0.00  0.00    +0.149 HD
BRANCH  22  26
ATOM     26  C   UNL     1     147.421 171.973 191.001  0.00  0.00    +0.050 C 
ATOM     27  H   UNL     1     147.132 172.504 191.917  0.00  0.00    +0.038 HD
ATOM     28  H   UNL     1     147.803 172.740 190.318  0.00  0.00    +0.038 HD
BRANCH  26  33
ATOM     29  C   UNL     1     148.778 168.906 192.634  0.00  0.00    +0.066 C 
ATOM     30  C   UNL     1     150.206 169.015 192.093  0.00  0.00    -0.026 C 
ATOM     31  C   UNL     1     150.781 170.412 192.315  0.00  0.00    -0.046 C 
ATOM     32  C   UNL     1     149.743 171.529 192.057  0.00  0.00    -0.017 C 
ATOM     33  C   UNL     1     148.503 170.943 191.340  0.00  0.00    +0.070 C 
ATOM     34  O   UNL     1     147.889 169.925 192.150  0.00  0.00    -0.372 OA
ATOM     35  H   UNL     1     148.816 169.041 193.723  0.00  0.00    +0.060 HD
ATOM     36  H   UNL     1     150.863 168.273 192.558  0.00  0.00    +0.029 HD
ATOM     37  H   UNL     1     150.219 168.796 191.018  0.00  0.00    +0.029 HD
ATOM     38  H   UNL     1     151.187 170.477 193.333  0.00  0.00    +0.027 HD
ATOM     39  H   UNL     1     151.639 170.544 191.637  0.00  0.00    +0.027 HD
ATOM     40  H   UNL     1     150.220 172.276 191.408  0.00  0.00    +0.032 HD
ATOM     41  H   UNL     1     148.813 170.470 190.397  0.00  0.00    +0.060 HD
BRANCH  32  42
ATOM     42  C   UNL     1     149.402 172.231 193.377  0.00  0.00    -0.060 C 
ATOM     43  H   UNL     1     148.923 173.199 193.207  0.00  0.00    +0.023 HD
ATOM     44  H   UNL     1     148.728 171.630 193.993  0.00  0.00    +0.023 HD
ATOM     45  H   UNL     1     150.305 172.431 193.962  0.00  0.00    +0.023 HD
ENDBRANCH  32  42
BRANCH  29  46
ATOM     46  C   UNL     1     148.140 167.555 192.320  0.00  0.00    +0.036 C 
ATOM     47  H   UNL     1     148.745 167.002 191.591  0.00  0.00    +0.037 HD
ATOM     48  H   UNL     1     147.169 167.674 191.824  0.00  0.00    +0.037 HD
BRANCH  46  49
ATOM     49  C   UNL     1     147.993 166.706 193.561  0.00  0.00    +0.158 C 
ATOM     50  O   UNL     1     146.882 166.450 194.026  0.00  0.00    -0.293 OA
BRANCH  49  52
ATOM     51  C   UNL     1     149.332 165.954 195.559  0.00  0.00    -0.084 C 
ATOM     52  C   UNL     1     149.184 166.124 194.234  0.00  0.00    -0.023 C 
ATOM     53  H   UNL     1     148.558 166.248 196.265  0.00  0.00    +0.057 HD
ATOM     54  H   UNL     1     149.968 165.817 193.544  0.00  0.00    +0.065 HD
BRANCH  51  55
ATOM     55  C   UNL     1     150.564 165.363 196.166  0.00  0.00    -0.046 C 
ATOM     56  H   UNL     1     150.330 164.391 196.602  0.00  0.00    +0.027 HD
ATOM     57  H   UNL     1     150.942 166.024 196.954  0.00  0.00    +0.027 HD
ATOM     58  H   UNL     1     151.359 165.222 195.428  0.00  0.00    +0.027 HD
ENDBRANCH  51  55
ENDBRANCH  49  52
ENDBRANCH  46  49
ENDBRANCH  29  46
ENDBRANCH  26  33
ENDBRANCH  22  26
ENDBRANCH  19  24
ENDBRANCH  17  19
BRANCH  17  59
ATOM     59  O   UNL     1     145.256 167.737 187.564  0.00  0.00    -0.390 OA
ATOM     60  H   UNL     1     145.862 167.120 187.117  0.00  0.00    +0.210 HD
ENDBRANCH  17  59
ENDBRANCH  11  17
ENDBRANCH   7  11
ENDBRANCH   4   9
ENDBRANCH   1   4
BRANCH   1  61
ATOM     61  C   UNL     1     150.919 165.809 190.573  0.00  0.00    -0.025 C 
ATOM     62  H   UNL     1     150.307 164.913 190.720  0.00  0.00    +0.029 HD
ATOM     63  H   UNL     1     150.723 166.480 191.420  0.00  0.00    +0.029 HD
BRANCH  61  64
ATOM     64  C   UNL     1     152.414 165.453 190.560  0.00  0.00    +0.065 C 
ATOM     65  C   UNL     1     153.254 166.375 191.472  0.00  0.00    -0.017 C 
ATOM     66  C   UNL     1     154.753 166.095 191.283  0.00  0.00    -0.043 C 
ATOM     67  C   UNL     1     155.128 166.114 189.801  0.00  0.00    +0.002 C 
ATOM     68  C   UNL     1     154.219 165.184 188.989  0.00  0.00    +0.171 C 
ATOM     69  O   UNL     1     152.861 165.572 189.205  0.00  0.00    -0.345 OA
ATOM     70  C   UNL     1     154.511 165.355 187.491  0.00  0.00    +0.002 C 
ATOM     71  C   UNL     1     153.623 164.434 186.645  0.00  0.00    -0.046 C 
ATOM     72  C   UNL     1     153.300 163.131 187.373  0.00  0.00    -0.026 C 
ATOM     73  C   UNL     1     154.360 162.821 188.427  0.00  0.00    +0.062 C 
ATOM     74  O   UNL     1     154.447 163.840 189.431  0.00  0.00    -0.345 OA
ATOM     75  H   UNL     1     152.513 164.412 190.885  0.00  0.00    +0.060 HD
ATOM     76  H   UNL     1     153.075 167.415 191.173  0.00  0.00    +0.032 HD
ATOM     77  H   UNL     1     155.349 166.842 191.817  0.00  0.00    +0.027 HD
ATOM     78  H   UNL     1     155.011 165.119 191.718  0.00  0.00    +0.027 HD
ATOM     79  H   UNL     1     156.177 165.817 189.692  0.00  0.00    +0.032 HD
ATOM     80  H   UNL     1     155.029 167.147 189.442  0.00  0.00    +0.032 HD
ATOM     81  H   UNL     1     155.562 165.104 187.294  0.00  0.00    +0.032 HD
ATOM     82  H   UNL     1     154.350 166.392 187.167  0.00  0.00    +0.032 HD
ATOM     83  H   UNL     1     152.684 164.938 186.382  0.00  0.00    +0.027 HD
ATOM     84  H   UNL     1     154.130 164.224 185.696  0.00  0.00    +0.027 HD
ATOM     85  H   UNL     1     152.319 163.245 187.851  0.00  0.00    +0.029 HD
ATOM     86  H   UNL     1     153.200 162.316 186.648  0.00  0.00    +0.029 HD
ATOM     87  H   UNL     1     155.342 162.771 187.933  0.00  0.00    +0.060 HD
BRANCH  65  88
ATOM     88  C   UNL     1     152.891 166.234 192.952  0.00  0.00    -0.060 C 
ATOM     89  H   UNL     1     153.317 167.051 193.539  0.00  0.00    +0.023 HD
ATOM     90  H   UNL     1     153.272 165.292 193.365  0.00  0.00    +0.023 HD
ATOM     91  H   UNL     1     151.804 166.255 193.099  0.00  0.00    +0.023 HD
ENDBRANCH  65  88
BRANCH  73  92
ATOM     92  C   UNL     1     154.149 161.472 189.134  0.00  0.00    -0.026 C 
ATOM     93  H   UNL     1     153.314 160.970 188.642  0.00  0.00    +0.029 HD
ATOM     94  H   UNL     1     153.849 161.661 190.171  0.00  0.00    +0.029 HD
BRANCH  92  95
ATOM     95  C   UNL     1     155.375 160.546 189.114  0.00  0.00    -0.045 C 
ATOM     96  H   UNL     1     155.110 159.626 188.575  0.00  0.00    +0.027 HD
ATOM     97  H   UNL     1     155.615 160.250 190.139  0.00  0.00    +0.027 HD
BRANCH  95  98
ATOM     98  C   UNL     1     156.657 161.115 188.470  0.00  0.00    -0.025 C 
ATOM     99  H   UNL     1     156.425 162.158 188.231  0.00  0.00    +0.034 HD
BRANCH  98 100
ATOM    100  C   UNL     1     156.999 160.431 187.148  0.00  0.00    -0.059 C 
ATOM    101  H   UNL     1     157.438 159.444 187.332  0.00  0.00    +0.024 HD
ATOM    102  H   UNL     1     157.728 161.016 186.581  0.00  0.00    +0.024 HD
ATOM    103  H   UNL     1     156.119 160.281 186.516  0.00  0.00    +0.024 HD
ENDBRANCH  98 100
BRANCH  98 104
ATOM    104  C   UNL     1     157.847 161.042 189.407  0.00  0.00    -0.080 C 
ATOM    105  C   UNL     1     158.410 162.040 190.122  0.00  0.00    -0.048 C 
ATOM    106  H   UNL     1     158.277 160.046 189.474  0.00  0.00    +0.058 HD
BRANCH 105 107
ATOM    107  C   UNL     1     157.942 163.479 190.077  0.00  0.00    -0.041 C 
ATOM    108  H   UNL     1     158.700 164.175 189.719  0.00  0.00    +0.028 HD
ATOM    109  H   UNL     1     157.065 163.572 189.426  0.00  0.00    +0.028 HD
ATOM    110  H   UNL     1     157.658 163.817 191.080  0.00  0.00    +0.028 HD
ENDBRANCH 105 107
BRANCH 105 111
ATOM    111  C   UNL     1     159.604 161.842 191.048  0.00  0.00    +0.073 C 
ATOM    112  H   UNL     1     159.385 161.005 191.720  0.00  0.00    +0.064 HD
BRANCH 111 113
ATOM    113  C   UNL     1     160.040 163.027 191.912  0.00  0.00    -0.035 C 
ATOM    114  H   UNL     1     159.923 162.811 192.979  0.00  0.00    +0.026 HD
ATOM    115  H   UNL     1     161.095 163.258 191.717  0.00  0.00    +0.026 HD
ATOM    116  H   UNL     1     159.473 163.931 191.664  0.00  0.00    +0.026 HD
ENDBRANCH 111 113
BRANCH 111 117
ATOM    117  O   UNL     1     160.724 161.459 190.250  0.00  0.00    -0.388 OA
ATOM    118  H   UNL     1     161.301 160.921 190.818  0.00  0.00    +0.210 HD
ENDBRANCH 111 117
ENDBRANCH 105 111
ENDBRANCH  98 104
ENDBRANCH  95  98
ENDBRANCH  92  95
ENDBRANCH  73  92
ENDBRANCH  61  64
ENDBRANCH   1  61
TORSDOF 27
ENDMDL
