MODEL 1
REMARK VINA RESULT:      -6.5      0.000      0.000
REMARK  Name = Bistramide A_conf2
REMARK  27 active torsions:
REMARK  status: ('A' for Active; 'I' for Inactive)
REMARK    1  A    between atoms: C_1  and  C_2
REMARK    2  A    between atoms: C_3  and  C_4
REMARK    3  A    between atoms: C_4  and  C_6
REMARK    4  A    between atoms: C_6  and  C_7
REMARK    5  A    between atoms: C_10  and  C_50
REMARK    6  A    between atoms: C_11  and  C_13
REMARK    7  A    between atoms: C_13  and  C_14
REMARK    8  A    between atoms: N_16  and  C_17
REMARK    9  A    between atoms: C_17  and  C_18
REMARK   10  A    between atoms: C_18  and  C_19
REMARK   11  A    between atoms: C_18  and  O_49
REMARK   12  A    between atoms: C_19  and  C_20
REMARK   13  A    between atoms: C_19  and  C_21
REMARK   14  A    between atoms: N_23  and  C_24
REMARK   15  A    between atoms: C_24  and  C_25
REMARK   16  A    between atoms: C_25  and  C_26
REMARK   17  A    between atoms: C_26  and  C_27
REMARK   18  A    between atoms: C_28  and  C_48
REMARK   19  A    between atoms: C_36  and  C_38
REMARK   20  A    between atoms: C_38  and  C_39
REMARK   21  A    between atoms: C_39  and  C_40
REMARK   22  A    between atoms: C_40  and  C_41
REMARK   23  A    between atoms: C_40  and  C_42
REMARK   24  A    between atoms: C_43  and  C_44
REMARK   25  A    between atoms: C_43  and  C_45
REMARK   26  A    between atoms: C_45  and  C_46
REMARK   27  A    between atoms: C_45  and  O_47
REMARK                            x       y       z     vdW  Elec       q    Type
REMARK                         _______ _______ _______ _____ _____    ______ ____
ROOT
ATOM      1  C   UNL     1     151.593 169.580 191.570  0.00  0.00    -0.035 C 
ATOM      2  H   UNL     1     152.568 169.250 191.940  0.00  0.00    +0.028 HD
ATOM      3  H   UNL     1     151.787 170.351 190.812  0.00  0.00    +0.028 HD
ENDROOT
BRANCH   1   4
ATOM      4  C   UNL     1     150.799 170.207 192.709  0.00  0.00    +0.012 C 
ATOM      5  H   UNL     1     150.200 169.443 193.223  0.00  0.00    +0.046 HD
ATOM      6  H   UNL     1     151.472 170.663 193.443  0.00  0.00    +0.046 HD
BRANCH   4   9
ATOM      7  C   UNL     1     148.510 171.050 192.295  0.00  0.00    +0.218 C 
ATOM      8  O   UNL     1     147.975 170.023 192.701  0.00  0.00    -0.275 OA
ATOM      9  N   UNL     1     149.877 171.202 192.200  0.00  0.00    -0.315 N 
ATOM     10  H   UNL     1     150.255 172.069 191.843  0.00  0.00    +0.149 HD
BRANCH   7  11
ATOM     11  C   UNL     1     147.719 172.244 191.756  0.00  0.00    +0.060 C 
ATOM     12  H   UNL     1     146.992 172.544 192.525  0.00  0.00    +0.042 HD
BRANCH  11  13
ATOM     13  C   UNL     1     148.720 173.385 191.556  0.00  0.00    -0.052 C 
ATOM     14  H   UNL     1     148.976 173.858 192.513  0.00  0.00    +0.024 HD
ATOM     15  H   UNL     1     149.655 173.021 191.117  0.00  0.00    +0.024 HD
ATOM     16  H   UNL     1     148.323 174.152 190.886  0.00  0.00    +0.024 HD
ENDBRANCH  11  13
BRANCH  11  17
ATOM     17  C   UNL     1     146.960 171.817 190.485  0.00  0.00    +0.081 C 
ATOM     18  H   UNL     1     147.110 172.534 189.666  0.00  0.00    +0.062 HD
BRANCH  17  19
ATOM     19  C   UNL     1     145.444 171.619 190.671  0.00  0.00    +0.038 C 
ATOM     20  H   UNL     1     145.123 172.006 191.645  0.00  0.00    +0.049 HD
ATOM     21  H   UNL     1     144.879 172.127 189.883  0.00  0.00    +0.049 HD
BRANCH  19  24
ATOM     22  C   UNL     1     143.871 169.758 190.107  0.00  0.00    +0.216 C 
ATOM     23  O   UNL     1     142.942 170.512 189.837  0.00  0.00    -0.276 OA
ATOM     24  N   UNL     1     145.092 170.203 190.562  0.00  0.00    -0.313 N 
ATOM     25  H   UNL     1     145.811 169.524 190.782  0.00  0.00    +0.149 HD
BRANCH  22  26
ATOM     26  C   UNL     1     143.776 168.251 190.027  0.00  0.00    +0.050 C 
ATOM     27  H   UNL     1     144.724 167.890 189.611  0.00  0.00    +0.038 HD
ATOM     28  H   UNL     1     143.007 167.955 189.305  0.00  0.00    +0.038 HD
BRANCH  26  33
ATOM     29  C   UNL     1     144.888 166.393 193.023  0.00  0.00    +0.066 C 
ATOM     30  C   UNL     1     143.544 166.213 193.717  0.00  0.00    -0.026 C 
ATOM     31  C   UNL     1     142.491 165.713 192.733  0.00  0.00    -0.046 C 
ATOM     32  C   UNL     1     142.655 166.308 191.324  0.00  0.00    -0.017 C 
ATOM     33  C   UNL     1     143.523 167.587 191.384  0.00  0.00    +0.070 C 
ATOM     34  O   UNL     1     144.821 167.352 191.962  0.00  0.00    -0.372 OA
ATOM     35  H   UNL     1     145.191 165.440 192.577  0.00  0.00    +0.060 HD
ATOM     36  H   UNL     1     143.626 165.514 194.556  0.00  0.00    +0.029 HD
ATOM     37  H   UNL     1     143.212 167.170 194.137  0.00  0.00    +0.029 HD
ATOM     38  H   UNL     1     142.517 164.618 192.699  0.00  0.00    +0.027 HD
ATOM     39  H   UNL     1     141.500 165.974 193.126  0.00  0.00    +0.027 HD
ATOM     40  H   UNL     1     141.650 166.572 190.969  0.00  0.00    +0.032 HD
ATOM     41  H   UNL     1     143.018 168.319 192.025  0.00  0.00    +0.060 HD
BRANCH  32  42
ATOM     42  C   UNL     1     143.192 165.254 190.346  0.00  0.00    -0.060 C 
ATOM     43  H   UNL     1     143.812 164.504 190.842  0.00  0.00    +0.023 HD
ATOM     44  H   UNL     1     143.791 165.720 189.563  0.00  0.00    +0.023 HD
ATOM     45  H   UNL     1     142.364 164.739 189.844  0.00  0.00    +0.023 HD
ENDBRANCH  32  42
BRANCH  29  46
ATOM     46  C   UNL     1     145.959 166.854 194.008  0.00  0.00    +0.036 C 
ATOM     47  H   UNL     1     145.523 167.395 194.854  0.00  0.00    +0.037 HD
ATOM     48  H   UNL     1     146.669 167.525 193.516  0.00  0.00    +0.037 HD
BRANCH  46  49
ATOM     49  C   UNL     1     146.689 165.658 194.584  0.00  0.00    +0.158 C 
ATOM     50  O   UNL     1     146.122 164.580 194.763  0.00  0.00    -0.293 OA
BRANCH  49  52
ATOM     51  C   UNL     1     148.528 165.756 196.228  0.00  0.00    -0.084 C 
ATOM     52  C   UNL     1     148.124 165.853 194.953  0.00  0.00    -0.023 C 
ATOM     53  H   UNL     1     147.804 165.525 197.009  0.00  0.00    +0.057 HD
ATOM     54  H   UNL     1     148.819 166.074 194.152  0.00  0.00    +0.065 HD
BRANCH  51  55
ATOM     55  C   UNL     1     149.937 165.965 196.669  0.00  0.00    -0.046 C 
ATOM     56  H   UNL     1     150.644 165.337 196.112  0.00  0.00    +0.027 HD
ATOM     57  H   UNL     1     150.044 165.737 197.739  0.00  0.00    +0.027 HD
ATOM     58  H   UNL     1     150.223 167.013 196.518  0.00  0.00    +0.027 HD
ENDBRANCH  51  55
ENDBRANCH  49  52
ENDBRANCH  46  49
ENDBRANCH  29  46
ENDBRANCH  26  33
ENDBRANCH  22  26
ENDBRANCH  19  24
ENDBRANCH  17  19
BRANCH  17  59
ATOM     59  O   UNL     1     147.535 170.571 190.048  0.00  0.00    -0.390 OA
ATOM     60  H   UNL     1     147.970 170.171 190.822  0.00  0.00    +0.210 HD
ENDBRANCH  17  59
ENDBRANCH  11  17
ENDBRANCH   7  11
ENDBRANCH   4   9
ENDBRANCH   1   4
BRANCH   1  61
ATOM     61  C   UNL     1     150.846 168.409 190.927  0.00  0.00    -0.025 C 
ATOM     62  H   UNL     1     149.898 168.269 191.463  0.00  0.00    +0.029 HD
ATOM     63  H   UNL     1     150.609 168.661 189.886  0.00  0.00    +0.029 HD
BRANCH  61  64
ATOM     64  C   UNL     1     151.669 167.109 190.980  0.00  0.00    +0.065 C 
ATOM     65  C   UNL     1     152.431 166.967 192.316  0.00  0.00    -0.017 C 
ATOM     66  C   UNL     1     153.649 166.036 192.169  0.00  0.00    -0.043 C 
ATOM     67  C   UNL     1     153.468 165.089 190.989  0.00  0.00    +0.002 C 
ATOM     68  C   UNL     1     153.246 165.868 189.673  0.00  0.00    +0.171 C 
ATOM     69  O   UNL     1     152.626 167.139 189.918  0.00  0.00    -0.345 OA
ATOM     70  C   UNL     1     154.587 166.144 188.976  0.00  0.00    +0.002 C 
ATOM     71  C   UNL     1     154.392 166.885 187.651  0.00  0.00    -0.046 C 
ATOM     72  C   UNL     1     153.048 166.561 187.005  0.00  0.00    -0.026 C 
ATOM     73  C   UNL     1     152.559 165.180 187.435  0.00  0.00    +0.062 C 
ATOM     74  O   UNL     1     152.393 165.058 188.854  0.00  0.00    -0.345 OA
ATOM     75  H   UNL     1     150.986 166.261 190.826  0.00  0.00    +0.060 HD
ATOM     76  H   UNL     1     152.823 167.948 192.617  0.00  0.00    +0.032 HD
ATOM     77  H   UNL     1     153.832 165.465 193.087  0.00  0.00    +0.027 HD
ATOM     78  H   UNL     1     154.548 166.646 192.001  0.00  0.00    +0.027 HD
ATOM     79  H   UNL     1     152.605 164.440 191.191  0.00  0.00    +0.032 HD
ATOM     80  H   UNL     1     154.328 164.409 190.903  0.00  0.00    +0.032 HD
ATOM     81  H   UNL     1     155.093 165.195 188.766  0.00  0.00    +0.032 HD
ATOM     82  H   UNL     1     155.256 166.733 189.614  0.00  0.00    +0.032 HD
ATOM     83  H   UNL     1     154.465 167.967 187.809  0.00  0.00    +0.027 HD
ATOM     84  H   UNL     1     155.212 166.621 186.973  0.00  0.00    +0.027 HD
ATOM     85  H   UNL     1     152.333 167.331 187.314  0.00  0.00    +0.029 HD
ATOM     86  H   UNL     1     153.138 166.628 185.914  0.00  0.00    +0.029 HD
ATOM     87  H   UNL     1     153.309 164.438 187.140  0.00  0.00    +0.060 HD
BRANCH  65  88
ATOM     88  C   UNL     1     151.503 166.485 193.441  0.00  0.00    -0.060 C 
ATOM     89  H   UNL     1     150.852 165.682 193.083  0.00  0.00    +0.023 HD
ATOM     90  H   UNL     1     150.870 167.303 193.802  0.00  0.00    +0.023 HD
ATOM     91  H   UNL     1     152.075 166.095 194.286  0.00  0.00    +0.023 HD
ENDBRANCH  65  88
BRANCH  73  92
ATOM     92  C   UNL     1     151.238 164.775 186.754  0.00  0.00    -0.026 C 
ATOM     93  H   UNL     1     150.538 164.443 187.535  0.00  0.00    +0.029 HD
ATOM     94  H   UNL     1     151.426 163.927 186.084  0.00  0.00    +0.029 HD
BRANCH  92  95
ATOM     95  C   UNL     1     150.578 165.928 185.983  0.00  0.00    -0.045 C 
ATOM     96  H   UNL     1     150.734 165.791 184.907  0.00  0.00    +0.027 HD
ATOM     97  H   UNL     1     151.075 166.867 186.259  0.00  0.00    +0.027 HD
BRANCH  95  98
ATOM     98  C   UNL     1     149.067 166.075 186.263  0.00  0.00    -0.025 C 
ATOM     99  H   UNL     1     148.620 165.079 186.214  0.00  0.00    +0.034 HD
BRANCH  98 100
ATOM    100  C   UNL     1     148.366 166.960 185.235  0.00  0.00    -0.059 C 
ATOM    101  H   UNL     1     147.505 167.479 185.672  0.00  0.00    +0.024 HD
ATOM    102  H   UNL     1     148.008 166.363 184.385  0.00  0.00    +0.024 HD
ATOM    103  H   UNL     1     149.050 167.715 184.835  0.00  0.00    +0.024 HD
ENDBRANCH  98 100
BRANCH  98 104
ATOM    104  C   UNL     1     148.899 166.675 187.645  0.00  0.00    -0.080 C 
ATOM    105  C   UNL     1     147.971 166.381 188.582  0.00  0.00    -0.048 C 
ATOM    106  H   UNL     1     149.669 167.406 187.894  0.00  0.00    +0.058 HD
BRANCH 105 107
ATOM    107  C   UNL     1     146.837 165.411 188.365  0.00  0.00    -0.041 C 
ATOM    108  H   UNL     1     146.693 165.224 187.296  0.00  0.00    +0.028 HD
ATOM    109  H   UNL     1     145.885 165.760 188.773  0.00  0.00    +0.028 HD
ATOM    110  H   UNL     1     147.039 164.454 188.856  0.00  0.00    +0.028 HD
ENDBRANCH 105 107
BRANCH 105 111
ATOM    111  C   UNL     1     148.039 167.021 189.953  0.00  0.00    +0.073 C 
ATOM    112  H   UNL     1     148.956 167.616 190.048  0.00  0.00    +0.064 HD
BRANCH 111 113
ATOM    113  C   UNL     1     148.015 165.993 191.076  0.00  0.00    -0.035 C 
ATOM    114  H   UNL     1     147.920 164.972 190.685  0.00  0.00    +0.026 HD
ATOM    115  H   UNL     1     148.915 166.046 191.695  0.00  0.00    +0.026 HD
ATOM    116  H   UNL     1     147.143 166.154 191.723  0.00  0.00    +0.026 HD
ENDBRANCH 111 113
BRANCH 111 117
ATOM    117  O   UNL     1     146.947 167.924 190.093  0.00  0.00    -0.388 OA
ATOM    118  H   UNL     1     147.315 168.783 190.355  0.00  0.00    +0.210 HD
ENDBRANCH 111 117
ENDBRANCH 105 111
ENDBRANCH  98 104
ENDBRANCH  95  98
ENDBRANCH  92  95
ENDBRANCH  73  92
ENDBRANCH  61  64
ENDBRANCH   1  61
TORSDOF 27
ENDMDL
MODEL 2
REMARK VINA RESULT:      -6.2      2.657      8.948
REMARK  Name = Bistramide A_conf2
REMARK  27 active torsions:
REMARK  status: ('A' for Active; 'I' for Inactive)
REMARK    1  A    between atoms: C_1  and  C_2
REMARK    2  A    between atoms: C_3  and  C_4
REMARK    3  A    between atoms: C_4  and  C_6
REMARK    4  A    between atoms: C_6  and  C_7
REMARK    5  A    between atoms: C_10  and  C_50
REMARK    6  A    between atoms: C_11  and  C_13
REMARK    7  A    between atoms: C_13  and  C_14
REMARK    8  A    between atoms: N_16  and  C_17
REMARK    9  A    between atoms: C_17  and  C_18
REMARK   10  A    between atoms: C_18  and  C_19
REMARK   11  A    between atoms: C_18  and  O_49
REMARK   12  A    between atoms: C_19  and  C_20
REMARK   13  A    between atoms: C_19  and  C_21
REMARK   14  A    between atoms: N_23  and  C_24
REMARK   15  A    between atoms: C_24  and  C_25
REMARK   16  A    between atoms: C_25  and  C_26
REMARK   17  A    between atoms: C_26  and  C_27
REMARK   18  A    between atoms: C_28  and  C_48
REMARK   19  A    between atoms: C_36  and  C_38
REMARK   20  A    between atoms: C_38  and  C_39
REMARK   21  A    between atoms: C_39  and  C_40
REMARK   22  A    between atoms: C_40  and  C_41
REMARK   23  A    between atoms: C_40  and  C_42
REMARK   24  A    between atoms: C_43  and  C_44
REMARK   25  A    between atoms: C_43  and  C_45
REMARK   26  A    between atoms: C_45  and  C_46
REMARK   27  A    between atoms: C_45  and  O_47
REMARK                            x       y       z     vdW  Elec       q    Type
REMARK                         _______ _______ _______ _____ _____    ______ ____
ROOT
ATOM      1  C   UNL     1     147.014 166.918 190.164  0.00  0.00    -0.035 C 
ATOM      2  H   UNL     1     146.345 166.299 189.559  0.00  0.00    +0.028 HD
ATOM      3  H   UNL     1     146.500 167.875 190.327  0.00  0.00    +0.028 HD
ENDROOT
BRANCH   1   4
ATOM      4  C   UNL     1     148.301 167.182 189.394  0.00  0.00    +0.012 C 
ATOM      5  H   UNL     1     148.321 166.592 188.467  0.00  0.00    +0.046 HD
ATOM      6  H   UNL     1     148.380 168.241 189.125  0.00  0.00    +0.046 HD
BRANCH   4   9
ATOM      7  C   UNL     1     150.571 166.220 189.601  0.00  0.00    +0.218 C 
ATOM      8  O   UNL     1     150.628 165.902 188.417  0.00  0.00    -0.275 OA
ATOM      9  N   UNL     1     149.454 166.785 190.177  0.00  0.00    -0.315 N 
ATOM     10  H   UNL     1     149.466 167.011 191.162  0.00  0.00    +0.149 HD
BRANCH   7  11
ATOM     11  C   UNL     1     151.699 165.935 190.595  0.00  0.00    +0.060 C 
ATOM     12  H   UNL     1     151.249 165.525 191.511  0.00  0.00    +0.042 HD
BRANCH  11  13
ATOM     13  C   UNL     1     152.588 164.862 189.962  0.00  0.00    -0.052 C 
ATOM     14  H   UNL     1     153.364 165.315 189.331  0.00  0.00    +0.024 HD
ATOM     15  H   UNL     1     153.101 164.269 190.727  0.00  0.00    +0.024 HD
ATOM     16  H   UNL     1     152.005 164.170 189.350  0.00  0.00    +0.024 HD
ENDBRANCH  11  13
BRANCH  11  17
ATOM     17  C   UNL     1     152.419 167.255 190.937  0.00  0.00    +0.081 C 
ATOM     18  H   UNL     1     153.510 167.133 190.922  0.00  0.00    +0.062 HD
BRANCH  17  19
ATOM     19  C   UNL     1     152.028 167.875 192.291  0.00  0.00    +0.038 C 
ATOM     20  H   UNL     1     151.254 167.272 192.780  0.00  0.00    +0.049 HD
ATOM     21  H   UNL     1     152.894 167.949 192.957  0.00  0.00    +0.049 HD
BRANCH  19  24
ATOM     22  C   UNL     1     150.224 169.607 192.245  0.00  0.00    +0.216 C 
ATOM     23  O   UNL     1     149.324 168.796 192.442  0.00  0.00    -0.276 OA
ATOM     24  N   UNL     1     151.546 169.244 192.111  0.00  0.00    -0.313 N 
ATOM     25  H   UNL     1     152.236 169.964 191.934  0.00  0.00    +0.149 HD
BRANCH  22  26
ATOM     26  C   UNL     1     149.991 171.090 192.074  0.00  0.00    +0.050 C 
ATOM     27  H   UNL     1     150.495 171.392 191.148  0.00  0.00    +0.038 HD
ATOM     28  H   UNL     1     150.489 171.649 192.874  0.00  0.00    +0.038 HD
BRANCH  26  33
ATOM     29  C   UNL     1     146.970 172.145 190.224  0.00  0.00    +0.066 C 
ATOM     30  C   UNL     1     146.003 172.295 191.391  0.00  0.00    -0.026 C 
ATOM     31  C   UNL     1     146.643 173.092 192.523  0.00  0.00    -0.046 C 
ATOM     32  C   UNL     1     148.146 172.803 192.686  0.00  0.00    -0.017 C 
ATOM     33  C   UNL     1     148.508 171.467 191.998  0.00  0.00    +0.070 C 
ATOM     34  O   UNL     1     148.163 171.448 190.599  0.00  0.00    -0.372 OA
ATOM     35  H   UNL     1     147.273 173.140 189.879  0.00  0.00    +0.060 HD
ATOM     36  H   UNL     1     145.077 172.786 191.073  0.00  0.00    +0.029 HD
ATOM     37  H   UNL     1     145.721 171.305 191.768  0.00  0.00    +0.029 HD
ATOM     38  H   UNL     1     146.468 174.161 192.358  0.00  0.00    +0.027 HD
ATOM     39  H   UNL     1     146.121 172.846 193.456  0.00  0.00    +0.027 HD
ATOM     40  H   UNL     1     148.340 172.717 193.764  0.00  0.00    +0.032 HD
ATOM     41  H   UNL     1     147.935 170.663 192.476  0.00  0.00    +0.060 HD
BRANCH  32  42
ATOM     42  C   UNL     1     148.986 173.988 192.192  0.00  0.00    -0.060 C 
ATOM     43  H   UNL     1     150.033 173.718 192.033  0.00  0.00    +0.023 HD
ATOM     44  H   UNL     1     148.956 174.811 192.906  0.00  0.00    +0.023 HD
ATOM     45  H   UNL     1     148.584 174.377 191.248  0.00  0.00    +0.023 HD
ENDBRANCH  32  42
BRANCH  29  46
ATOM     46  C   UNL     1     146.324 171.384 189.068  0.00  0.00    +0.036 C 
ATOM     47  H   UNL     1     145.527 170.720 189.418  0.00  0.00    +0.037 HD
ATOM     48  H   UNL     1     147.067 170.768 188.553  0.00  0.00    +0.037 HD
BRANCH  46  49
ATOM     49  C   UNL     1     145.689 172.354 188.094  0.00  0.00    +0.158 C 
ATOM     50  O   UNL     1     146.362 173.163 187.455  0.00  0.00    -0.293 OA
BRANCH  49  52
ATOM     51  C   UNL     1     143.462 173.421 188.073  0.00  0.00    -0.084 C 
ATOM     52  C   UNL     1     144.201 172.307 187.963  0.00  0.00    -0.023 C 
ATOM     53  H   UNL     1     143.950 174.379 188.254  0.00  0.00    +0.057 HD
ATOM     54  H   UNL     1     143.747 171.340 187.777  0.00  0.00    +0.065 HD
BRANCH  51  55
ATOM     55  C   UNL     1     141.974 173.441 187.980  0.00  0.00    -0.046 C 
ATOM     56  H   UNL     1     141.584 172.613 187.374  0.00  0.00    +0.027 HD
ATOM     57  H   UNL     1     141.628 174.385 187.535  0.00  0.00    +0.027 HD
ATOM     58  H   UNL     1     141.537 173.361 188.983  0.00  0.00    +0.027 HD
ENDBRANCH  51  55
ENDBRANCH  49  52
ENDBRANCH  46  49
ENDBRANCH  29  46
ENDBRANCH  26  33
ENDBRANCH  22  26
ENDBRANCH  19  24
ENDBRANCH  17  19
BRANCH  17  59
ATOM     59  O   UNL     1     152.097 168.193 189.893  0.00  0.00    -0.390 OA
ATOM     60  H   UNL     1     151.168 168.039 189.647  0.00  0.00    +0.210 HD
ENDBRANCH  17  59
ENDBRANCH  11  17
ENDBRANCH   7  11
ENDBRANCH   4   9
ENDBRANCH   1   4
BRANCH   1  61
ATOM     61  C   UNL     1     147.280 166.247 191.513  0.00  0.00    -0.025 C 
ATOM     62  H   UNL     1     147.444 165.175 191.338  0.00  0.00    +0.029 HD
ATOM     63  H   UNL     1     148.198 166.660 191.947  0.00  0.00    +0.029 HD
BRANCH  61  64
ATOM     64  C   UNL     1     146.104 166.438 192.488  0.00  0.00    +0.065 C 
ATOM     65  C   UNL     1     146.206 165.492 193.705  0.00  0.00    -0.017 C 
ATOM     66  C   UNL     1     144.827 165.257 194.348  0.00  0.00    -0.043 C 
ATOM     67  C   UNL     1     143.873 166.398 194.018  0.00  0.00    +0.002 C 
ATOM     68  C   UNL     1     143.713 166.571 192.491  0.00  0.00    +0.171 C 
ATOM     69  O   UNL     1     144.891 166.144 191.791  0.00  0.00    -0.345 OA
ATOM     70  C   UNL     1     142.543 165.720 191.971  0.00  0.00    +0.002 C 
ATOM     71  C   UNL     1     142.340 165.900 190.465  0.00  0.00    -0.046 C 
ATOM     72  C   UNL     1     142.781 167.281 189.987  0.00  0.00    -0.026 C 
ATOM     73  C   UNL     1     142.680 168.303 191.118  0.00  0.00    +0.062 C 
ATOM     74  O   UNL     1     143.483 167.966 192.255  0.00  0.00    -0.345 OA
ATOM     75  H   UNL     1     146.088 167.490 192.809  0.00  0.00    +0.060 HD
ATOM     76  H   UNL     1     146.568 164.510 193.371  0.00  0.00    +0.032 HD
ATOM     77  H   UNL     1     144.907 165.134 195.436  0.00  0.00    +0.027 HD
ATOM     78  H   UNL     1     144.408 164.318 193.962  0.00  0.00    +0.027 HD
ATOM     79  H   UNL     1     144.268 167.323 194.461  0.00  0.00    +0.032 HD
ATOM     80  H   UNL     1     142.898 166.238 194.500  0.00  0.00    +0.032 HD
ATOM     81  H   UNL     1     141.619 166.020 192.479  0.00  0.00    +0.032 HD
ATOM     82  H   UNL     1     142.697 164.656 192.181  0.00  0.00    +0.032 HD
ATOM     83  H   UNL     1     142.896 165.134 189.914  0.00  0.00    +0.027 HD
ATOM     84  H   UNL     1     141.283 165.737 190.228  0.00  0.00    +0.027 HD
ATOM     85  H   UNL     1     143.816 167.202 189.639  0.00  0.00    +0.029 HD
ATOM     86  H   UNL     1     142.176 167.583 189.124  0.00  0.00    +0.029 HD
ATOM     87  H   UNL     1     141.641 168.337 191.464  0.00  0.00    +0.060 HD
BRANCH  65  88
ATOM     88  C   UNL     1     147.214 166.018 194.739  0.00  0.00    -0.060 C 
ATOM     89  H   UNL     1     148.142 166.325 194.247  0.00  0.00    +0.023 HD
ATOM     90  H   UNL     1     147.457 165.245 195.475  0.00  0.00    +0.023 HD
ATOM     91  H   UNL     1     146.819 166.887 195.270  0.00  0.00    +0.023 HD
ENDBRANCH  65  88
BRANCH  73  92
ATOM     92  C   UNL     1     143.047 169.730 190.668  0.00  0.00    -0.026 C 
ATOM     93  H   UNL     1     143.769 169.653 189.842  0.00  0.00    +0.029 HD
ATOM     94  H   UNL     1     143.537 170.252 191.500  0.00  0.00    +0.029 HD
BRANCH  92  95
ATOM     95  C   UNL     1     141.839 170.536 190.171  0.00  0.00    -0.045 C 
ATOM     96  H   UNL     1     141.185 169.893 189.571  0.00  0.00    +0.027 HD
ATOM     97  H   UNL     1     142.196 171.334 189.506  0.00  0.00    +0.027 HD
BRANCH  95  98
ATOM     98  C   UNL     1     141.015 171.180 191.306  0.00  0.00    -0.025 C 
ATOM     99  H   UNL     1     141.085 170.528 192.181  0.00  0.00    +0.034 HD
BRANCH  98 100
ATOM    100  C   UNL     1     139.538 171.330 190.945  0.00  0.00    -0.059 C 
ATOM    101  H   UNL     1     139.412 171.732 189.932  0.00  0.00    +0.024 HD
ATOM    102  H   UNL     1     139.031 172.006 191.646  0.00  0.00    +0.024 HD
ATOM    103  H   UNL     1     139.023 170.366 190.994  0.00  0.00    +0.024 HD
ENDBRANCH  98 100
BRANCH  98 104
ATOM    104  C   UNL     1     141.604 172.545 191.602  0.00  0.00    -0.080 C 
ATOM    105  C   UNL     1     141.406 173.329 192.684  0.00  0.00    -0.048 C 
ATOM    106  H   UNL     1     142.303 172.887 190.838  0.00  0.00    +0.058 HD
BRANCH 105 107
ATOM    107  C   UNL     1     140.451 172.994 193.801  0.00  0.00    -0.041 C 
ATOM    108  H   UNL     1     139.527 173.572 193.700  0.00  0.00    +0.028 HD
ATOM    109  H   UNL     1     140.861 173.194 194.795  0.00  0.00    +0.028 HD
ATOM    110  H   UNL     1     140.194 171.931 193.793  0.00  0.00    +0.028 HD
ENDBRANCH 105 107
BRANCH 105 111
ATOM    111  C   UNL     1     142.179 174.623 192.842  0.00  0.00    +0.073 C 
ATOM    112  H   UNL     1     143.253 174.441 192.713  0.00  0.00    +0.064 HD
BRANCH 111 113
ATOM    113  C   UNL     1     141.961 175.267 194.204  0.00  0.00    -0.035 C 
ATOM    114  H   UNL     1     140.948 175.079 194.581  0.00  0.00    +0.026 HD
ATOM    115  H   UNL     1     142.680 174.905 194.945  0.00  0.00    +0.026 HD
ATOM    116  H   UNL     1     142.062 176.357 194.132  0.00  0.00    +0.026 HD
ENDBRANCH 111 113
BRANCH 111 117
ATOM    117  O   UNL     1     141.787 175.521 191.808  0.00  0.00    -0.388 OA
ATOM    118  H   UNL     1     142.285 175.277 191.011  0.00  0.00    +0.210 HD
ENDBRANCH 111 117
ENDBRANCH 105 111
ENDBRANCH  98 104
ENDBRANCH  95  98
ENDBRANCH  92  95
ENDBRANCH  73  92
ENDBRANCH  61  64
ENDBRANCH   1  61
TORSDOF 27
ENDMDL
MODEL 3
REMARK VINA RESULT:      -6.2      1.598      2.245
REMARK  Name = Bistramide A_conf2
REMARK  27 active torsions:
REMARK  status: ('A' for Active; 'I' for Inactive)
REMARK    1  A    between atoms: C_1  and  C_2
REMARK    2  A    between atoms: C_3  and  C_4
REMARK    3  A    between atoms: C_4  and  C_6
REMARK    4  A    between atoms: C_6  and  C_7
REMARK    5  A    between atoms: C_10  and  C_50
REMARK    6  A    between atoms: C_11  and  C_13
REMARK    7  A    between atoms: C_13  and  C_14
REMARK    8  A    between atoms: N_16  and  C_17
REMARK    9  A    between atoms: C_17  and  C_18
REMARK   10  A    between atoms: C_18  and  C_19
REMARK   11  A    between atoms: C_18  and  O_49
REMARK   12  A    between atoms: C_19  and  C_20
REMARK   13  A    between atoms: C_19  and  C_21
REMARK   14  A    between atoms: N_23  and  C_24
REMARK   15  A    between atoms: C_24  and  C_25
REMARK   16  A    between atoms: C_25  and  C_26
REMARK   17  A    between atoms: C_26  and  C_27
REMARK   18  A    between atoms: C_28  and  C_48
REMARK   19  A    between atoms: C_36  and  C_38
REMARK   20  A    between atoms: C_38  and  C_39
REMARK   21  A    between atoms: C_39  and  C_40
REMARK   22  A    between atoms: C_40  and  C_41
REMARK   23  A    between atoms: C_40  and  C_42
REMARK   24  A    between atoms: C_43  and  C_44
REMARK   25  A    between atoms: C_43  and  C_45
REMARK   26  A    between atoms: C_45  and  C_46
REMARK   27  A    between atoms: C_45  and  O_47
REMARK                            x       y       z     vdW  Elec       q    Type
REMARK                         _______ _______ _______ _____ _____    ______ ____
ROOT
ATOM      1  C   UNL     1     149.630 168.281 192.427  0.00  0.00    -0.035 C 
ATOM      2  H   UNL     1     149.438 167.248 192.733  0.00  0.00    +0.028 HD
ATOM      3  H   UNL     1     149.452 168.911 193.310  0.00  0.00    +0.028 HD
ENDROOT
BRANCH   1   4
ATOM      4  C   UNL     1     148.645 168.683 191.337  0.00  0.00    +0.012 C 
ATOM      5  H   UNL     1     149.184 169.010 190.436  0.00  0.00    +0.046 HD
ATOM      6  H   UNL     1     148.007 167.836 191.062  0.00  0.00    +0.046 HD
BRANCH   4   9
ATOM      7  C   UNL     1     148.190 171.106 191.544  0.00  0.00    +0.218 C 
ATOM      8  O   UNL     1     149.274 171.429 191.066  0.00  0.00    -0.275 OA
ATOM      9  N   UNL     1     147.828 169.796 191.774  0.00  0.00    -0.315 N 
ATOM     10  H   UNL     1     146.925 169.598 192.183  0.00  0.00    +0.149 HD
BRANCH   7  11
ATOM     11  C   UNL     1     147.157 172.125 192.027  0.00  0.00    +0.060 C 
ATOM     12  H   UNL     1     146.564 171.654 192.826  0.00  0.00    +0.042 HD
BRANCH  11  13
ATOM     13  C   UNL     1     147.937 173.299 192.623  0.00  0.00    -0.052 C 
ATOM     14  H   UNL     1     148.441 173.877 191.837  0.00  0.00    +0.024 HD
ATOM     15  H   UNL     1     147.272 173.990 193.153  0.00  0.00    +0.024 HD
ATOM     16  H   UNL     1     148.689 172.958 193.338  0.00  0.00    +0.024 HD
ENDBRANCH  11  13
BRANCH  11  17
ATOM     17  C   UNL     1     146.222 172.493 190.858  0.00  0.00    +0.081 C 
ATOM     18  H   UNL     1     146.255 173.570 190.641  0.00  0.00    +0.062 HD
BRANCH  17  19
ATOM     19  C   UNL     1     144.749 172.093 191.055  0.00  0.00    +0.038 C 
ATOM     20  H   UNL     1     144.409 172.363 192.061  0.00  0.00    +0.049 HD
ATOM     21  H   UNL     1     144.104 172.582 190.318  0.00  0.00    +0.049 HD
BRANCH  19  24
ATOM     22  C   UNL     1     143.436 170.103 190.297  0.00  0.00    +0.216 C 
ATOM     23  O   UNL     1     142.439 170.761 190.019  0.00  0.00    -0.276 OA
ATOM     24  N   UNL     1     144.573 170.656 190.844  0.00  0.00    -0.313 N 
ATOM     25  H   UNL     1     145.356 170.051 191.064  0.00  0.00    +0.149 HD
BRANCH  22  26
ATOM     26  C   UNL     1     143.525 168.603 190.124  0.00  0.00    +0.050 C 
ATOM     27  H   UNL     1     144.494 168.389 189.656  0.00  0.00    +0.038 HD
ATOM     28  H   UNL     1     142.772 168.257 189.407  0.00  0.00    +0.038 HD
BRANCH  26  33
ATOM     29  C   UNL     1     144.932 166.536 192.845  0.00  0.00    +0.066 C 
ATOM     30  C   UNL     1     143.663 166.285 193.649  0.00  0.00    -0.026 C 
ATOM     31  C   UNL     1     142.523 165.847 192.734  0.00  0.00    -0.046 C 
ATOM     32  C   UNL     1     142.547 166.551 191.366  0.00  0.00    -0.017 C 
ATOM     33  C   UNL     1     143.408 167.833 191.442  0.00  0.00    +0.070 C 
ATOM     34  O   UNL     1     144.758 167.573 191.874  0.00  0.00    -0.372 OA
ATOM     35  H   UNL     1     145.197 165.624 192.299  0.00  0.00    +0.060 HD
ATOM     36  H   UNL     1     143.830 165.524 194.419  0.00  0.00    +0.029 HD
ATOM     37  H   UNL     1     143.367 167.202 194.171  0.00  0.00    +0.029 HD
ATOM     38  H   UNL     1     142.553 164.758 192.612  0.00  0.00    +0.027 HD
ATOM     39  H   UNL     1     141.573 166.063 193.239  0.00  0.00    +0.027 HD
ATOM     40  H   UNL     1     141.510 166.827 191.130  0.00  0.00    +0.032 HD
ATOM     41  H   UNL     1     142.963 168.507 192.184  0.00  0.00    +0.060 HD
BRANCH  32  42
ATOM     42  C   UNL     1     142.994 165.583 190.262  0.00  0.00    -0.060 C 
ATOM     43  H   UNL     1     143.803 164.925 190.589  0.00  0.00    +0.023 HD
ATOM     44  H   UNL     1     143.339 166.128 189.383  0.00  0.00    +0.023 HD
ATOM     45  H   UNL     1     142.153 164.959 189.935  0.00  0.00    +0.023 HD
ENDBRANCH  32  42
BRANCH  29  46
ATOM     46  C   UNL     1     146.091 166.934 193.757  0.00  0.00    +0.036 C 
ATOM     47  H   UNL     1     145.759 167.081 194.789  0.00  0.00    +0.037 HD
ATOM     48  H   UNL     1     146.541 167.872 193.416  0.00  0.00    +0.037 HD
BRANCH  46  49
ATOM     49  C   UNL     1     147.135 165.837 193.785  0.00  0.00    +0.158 C 
ATOM     50  O   UNL     1     147.372 165.146 192.795  0.00  0.00    -0.293 OA
BRANCH  49  52
ATOM     51  C   UNL     1     149.126 165.983 195.238  0.00  0.00    -0.084 C 
ATOM     52  C   UNL     1     147.846 165.612 195.080  0.00  0.00    -0.023 C 
ATOM     53  H   UNL     1     149.656 166.462 194.415  0.00  0.00    +0.057 HD
ATOM     54  H   UNL     1     147.289 165.139 195.879  0.00  0.00    +0.065 HD
BRANCH  51  55
ATOM     55  C   UNL     1     149.903 165.763 196.491  0.00  0.00    -0.046 C 
ATOM     56  H   UNL     1     149.616 164.834 197.000  0.00  0.00    +0.027 HD
ATOM     57  H   UNL     1     149.753 166.598 197.190  0.00  0.00    +0.027 HD
ATOM     58  H   UNL     1     150.974 165.705 196.260  0.00  0.00    +0.027 HD
ENDBRANCH  51  55
ENDBRANCH  49  52
ENDBRANCH  46  49
ENDBRANCH  29  46
ENDBRANCH  26  33
ENDBRANCH  22  26
ENDBRANCH  19  24
ENDBRANCH  17  19
BRANCH  17  59
ATOM     59  O   UNL     1     146.727 171.824 189.688  0.00  0.00    -0.390 OA
ATOM     60  H   UNL     1     147.689 171.731 189.805  0.00  0.00    +0.210 HD
ENDBRANCH  17  59
ENDBRANCH  11  17
ENDBRANCH   7  11
ENDBRANCH   4   9
ENDBRANCH   1   4
BRANCH   1  61
ATOM     61  C   UNL     1     151.083 168.437 191.974  0.00  0.00    -0.025 C 
ATOM     62  H   UNL     1     151.103 169.111 191.107  0.00  0.00    +0.029 HD
ATOM     63  H   UNL     1     151.663 168.907 192.777  0.00  0.00    +0.029 HD
BRANCH  61  64
ATOM     64  C   UNL     1     151.711 167.084 191.593  0.00  0.00    +0.065 C 
ATOM     65  C   UNL     1     152.942 166.756 192.466  0.00  0.00    -0.017 C 
ATOM     66  C   UNL     1     153.882 165.762 191.759  0.00  0.00    -0.043 C 
ATOM     67  C   UNL     1     153.125 164.952 190.713  0.00  0.00    +0.002 C 
ATOM     68  C   UNL     1     152.456 165.872 189.667  0.00  0.00    +0.171 C 
ATOM     69  O   UNL     1     152.133 167.152 190.229  0.00  0.00    -0.345 OA
ATOM     70  C   UNL     1     153.404 166.122 188.483  0.00  0.00    +0.002 C 
ATOM     71  C   UNL     1     152.752 167.003 187.416  0.00  0.00    -0.046 C 
ATOM     72  C   UNL     1     151.235 166.839 187.384  0.00  0.00    -0.026 C 
ATOM     73  C   UNL     1     150.828 165.460 187.897  0.00  0.00    +0.062 C 
ATOM     74  O   UNL     1     151.259 165.209 189.241  0.00  0.00    -0.345 OA
ATOM     75  H   UNL     1     150.941 166.305 191.693  0.00  0.00    +0.060 HD
ATOM     76  H   UNL     1     153.525 167.673 192.631  0.00  0.00    +0.032 HD
ATOM     77  H   UNL     1     154.370 165.091 192.476  0.00  0.00    +0.027 HD
ATOM     78  H   UNL     1     154.686 166.322 191.262  0.00  0.00    +0.027 HD
ATOM     79  H   UNL     1     152.362 164.348 191.224  0.00  0.00    +0.032 HD
ATOM     80  H   UNL     1     153.793 164.226 190.228  0.00  0.00    +0.032 HD
ATOM     81  H   UNL     1     153.672 165.165 188.021  0.00  0.00    +0.032 HD
ATOM     82  H   UNL     1     154.336 166.596 188.810  0.00  0.00    +0.032 HD
ATOM     83  H   UNL     1     152.998 168.055 187.592  0.00  0.00    +0.027 HD
ATOM     84  H   UNL     1     153.180 166.751 186.438  0.00  0.00    +0.027 HD
ATOM     85  H   UNL     1     150.800 167.622 188.014  0.00  0.00    +0.029 HD
ATOM     86  H   UNL     1     150.867 167.008 186.365  0.00  0.00    +0.029 HD
ATOM     87  H   UNL     1     151.303 164.700 187.266  0.00  0.00    +0.060 HD
BRANCH  65  88
ATOM     88  C   UNL     1     152.525 166.231 193.848  0.00  0.00    -0.060 C 
ATOM     89  H   UNL     1     151.481 166.486 194.055  0.00  0.00    +0.023 HD
ATOM     90  H   UNL     1     153.147 166.668 194.637  0.00  0.00    +0.023 HD
ATOM     91  H   UNL     1     152.616 165.144 193.902  0.00  0.00    +0.023 HD
ENDBRANCH  65  88
BRANCH  73  92
ATOM     92  C   UNL     1     149.308 165.218 187.820  0.00  0.00    -0.026 C 
ATOM     93  H   UNL     1     149.130 164.136 187.905  0.00  0.00    +0.029 HD
ATOM     94  H   UNL     1     148.943 165.546 186.839  0.00  0.00    +0.029 HD
BRANCH  92  95
ATOM     95  C   UNL     1     148.528 165.919 188.941  0.00  0.00    -0.045 C 
ATOM     96  H   UNL     1     149.196 166.586 189.497  0.00  0.00    +0.027 HD
ATOM     97  H   UNL     1     148.173 165.161 189.652  0.00  0.00    +0.027 HD
BRANCH  95  98
ATOM     98  C   UNL     1     147.310 166.723 188.438  0.00  0.00    -0.025 C 
ATOM     99  H   UNL     1     147.091 167.496 189.180  0.00  0.00    +0.034 HD
BRANCH  98 100
ATOM    100  C   UNL     1     146.064 165.856 188.276  0.00  0.00    -0.059 C 
ATOM    101  H   UNL     1     146.316 164.789 188.266  0.00  0.00    +0.024 HD
ATOM    102  H   UNL     1     145.542 166.093 187.339  0.00  0.00    +0.024 HD
ATOM    103  H   UNL     1     145.356 166.030 189.093  0.00  0.00    +0.024 HD
ENDBRANCH  98 100
BRANCH  98 104
ATOM    104  C   UNL     1     147.672 167.344 187.103  0.00  0.00    -0.080 C 
ATOM    105  C   UNL     1     147.314 168.551 186.613  0.00  0.00    -0.048 C 
ATOM    106  H   UNL     1     148.340 166.722 186.507  0.00  0.00    +0.058 HD
BRANCH 105 107
ATOM    107  C   UNL     1     146.378 169.499 187.317  0.00  0.00    -0.041 C 
ATOM    108  H   UNL     1     146.206 170.391 186.705  0.00  0.00    +0.028 HD
ATOM    109  H   UNL     1     146.748 169.830 188.291  0.00  0.00    +0.028 HD
ATOM    110  H   UNL     1     145.411 169.026 187.511  0.00  0.00    +0.028 HD
ENDBRANCH 105 107
BRANCH 105 111
ATOM    111  C   UNL     1     147.873 169.035 185.291  0.00  0.00    +0.073 C 
ATOM    112  H   UNL     1     148.959 169.172 185.365  0.00  0.00    +0.064 HD
BRANCH 111 113
ATOM    113  C   UNL     1     147.252 170.351 184.844  0.00  0.00    -0.035 C 
ATOM    114  H   UNL     1     146.481 170.691 185.548  0.00  0.00    +0.026 HD
ATOM    115  H   UNL     1     148.002 171.141 184.743  0.00  0.00    +0.026 HD
ATOM    116  H   UNL     1     146.750 170.229 183.877  0.00  0.00    +0.026 HD
ENDBRANCH 111 113
BRANCH 111 117
ATOM    117  O   UNL     1     147.653 168.032 184.304  0.00  0.00    -0.388 OA
ATOM    118  H   UNL     1     148.436 168.014 183.731  0.00  0.00    +0.210 HD
ENDBRANCH 111 117
ENDBRANCH 105 111
ENDBRANCH  98 104
ENDBRANCH  95  98
ENDBRANCH  92  95
ENDBRANCH  73  92
ENDBRANCH  61  64
ENDBRANCH   1  61
TORSDOF 27
ENDMDL
MODEL 4
REMARK VINA RESULT:      -6.1      2.019      8.166
REMARK  Name = Bistramide A_conf2
REMARK  27 active torsions:
REMARK  status: ('A' for Active; 'I' for Inactive)
REMARK    1  A    between atoms: C_1  and  C_2
REMARK    2  A    between atoms: C_3  and  C_4
REMARK    3  A    between atoms: C_4  and  C_6
REMARK    4  A    between atoms: C_6  and  C_7
REMARK    5  A    between atoms: C_10  and  C_50
REMARK    6  A    between atoms: C_11  and  C_13
REMARK    7  A    between atoms: C_13  and  C_14
REMARK    8  A    between atoms: N_16  and  C_17
REMARK    9  A    between atoms: C_17  and  C_18
REMARK   10  A    between atoms: C_18  and  C_19
REMARK   11  A    between atoms: C_18  and  O_49
REMARK   12  A    between atoms: C_19  and  C_20
REMARK   13  A    between atoms: C_19  and  C_21
REMARK   14  A    between atoms: N_23  and  C_24
REMARK   15  A    between atoms: C_24  and  C_25
REMARK   16  A    between atoms: C_25  and  C_26
REMARK   17  A    between atoms: C_26  and  C_27
REMARK   18  A    between atoms: C_28  and  C_48
REMARK   19  A    between atoms: C_36  and  C_38
REMARK   20  A    between atoms: C_38  and  C_39
REMARK   21  A    between atoms: C_39  and  C_40
REMARK   22  A    between atoms: C_40  and  C_41
REMARK   23  A    between atoms: C_40  and  C_42
REMARK   24  A    between atoms: C_43  and  C_44
REMARK   25  A    between atoms: C_43  and  C_45
REMARK   26  A    between atoms: C_45  and  C_46
REMARK   27  A    between atoms: C_45  and  O_47
REMARK                            x       y       z     vdW  Elec       q    Type
REMARK                         _______ _______ _______ _____ _____    ______ ____
ROOT
ATOM      1  C   UNL     1     148.033 168.461 191.804  0.00  0.00    -0.035 C 
ATOM      2  H   UNL     1     147.265 169.110 192.235  0.00  0.00    +0.028 HD
ATOM      3  H   UNL     1     149.003 168.845 192.151  0.00  0.00    +0.028 HD
ENDROOT
BRANCH   1   4
ATOM      4  C   UNL     1     147.988 168.553 190.285  0.00  0.00    +0.012 C 
ATOM      5  H   UNL     1     147.199 169.249 189.966  0.00  0.00    +0.046 HD
ATOM      6  H   UNL     1     148.943 168.919 189.892  0.00  0.00    +0.046 HD
BRANCH   4   9
ATOM      7  C   UNL     1     148.556 166.604 188.871  0.00  0.00    +0.218 C 
ATOM      8  O   UNL     1     149.601 167.106 188.464  0.00  0.00    -0.275 OA
ATOM      9  N   UNL     1     147.678 167.263 189.705  0.00  0.00    -0.315 N 
ATOM     10  H   UNL     1     146.827 166.799 189.992  0.00  0.00    +0.149 HD
BRANCH   7  11
ATOM     11  C   UNL     1     148.063 165.227 188.420  0.00  0.00    +0.060 C 
ATOM     12  H   UNL     1     148.863 164.498 188.620  0.00  0.00    +0.042 HD
BRANCH  11  13
ATOM     13  C   UNL     1     146.855 164.882 189.293  0.00  0.00    -0.052 C 
ATOM     14  H   UNL     1     146.577 163.826 189.182  0.00  0.00    +0.024 HD
ATOM     15  H   UNL     1     147.071 165.047 190.354  0.00  0.00    +0.024 HD
ATOM     16  H   UNL     1     145.988 165.497 189.038  0.00  0.00    +0.024 HD
ENDBRANCH  11  13
BRANCH  11  17
ATOM     17  C   UNL     1     147.781 165.261 186.905  0.00  0.00    +0.081 C 
ATOM     18  H   UNL     1     146.776 164.880 186.676  0.00  0.00    +0.062 HD
BRANCH  17  19
ATOM     19  C   UNL     1     148.792 164.487 186.040  0.00  0.00    +0.038 C 
ATOM     20  H   UNL     1     148.697 163.408 186.210  0.00  0.00    +0.049 HD
ATOM     21  H   UNL     1     148.642 164.693 184.976  0.00  0.00    +0.049 HD
BRANCH  19  24
ATOM     22  C   UNL     1     151.167 164.042 186.687  0.00  0.00    +0.216 C 
ATOM     23  O   UNL     1     150.983 162.842 186.861  0.00  0.00    -0.276 OA
ATOM     24  N   UNL     1     150.159 164.914 186.339  0.00  0.00    -0.313 N 
ATOM     25  H   UNL     1     150.378 165.897 186.227  0.00  0.00    +0.149 HD
BRANCH  22  26
ATOM     26  C   UNL     1     152.503 164.722 186.883  0.00  0.00    +0.050 C 
ATOM     27  H   UNL     1     152.379 165.770 186.585  0.00  0.00    +0.038 HD
ATOM     28  H   UNL     1     153.247 164.307 186.193  0.00  0.00    +0.038 HD
BRANCH  26  33
ATOM     29  C   UNL     1     152.489 165.809 190.416  0.00  0.00    +0.066 C 
ATOM     30  C   UNL     1     153.648 164.970 190.940  0.00  0.00    -0.026 C 
ATOM     31  C   UNL     1     154.853 165.075 190.010  0.00  0.00    -0.046 C 
ATOM     32  C   UNL     1     154.459 165.162 188.524  0.00  0.00    -0.017 C 
ATOM     33  C   UNL     1     153.012 164.655 188.326  0.00  0.00    +0.070 C 
ATOM     34  O   UNL     1     152.054 165.378 189.122  0.00  0.00    -0.372 OA
ATOM     35  H   UNL     1     152.816 166.849 190.316  0.00  0.00    +0.060 HD
ATOM     36  H   UNL     1     153.933 165.282 191.950  0.00  0.00    +0.029 HD
ATOM     37  H   UNL     1     153.343 163.919 191.009  0.00  0.00    +0.029 HD
ATOM     38  H   UNL     1     155.463 165.937 190.302  0.00  0.00    +0.027 HD
ATOM     39  H   UNL     1     155.487 164.194 190.167  0.00  0.00    +0.027 HD
ATOM     40  H   UNL     1     155.149 164.510 187.972  0.00  0.00    +0.032 HD
ATOM     41  H   UNL     1     152.965 163.607 188.648  0.00  0.00    +0.060 HD
BRANCH  32  42
ATOM     42  C   UNL     1     154.685 166.581 187.983  0.00  0.00    -0.060 C 
ATOM     43  H   UNL     1     155.473 167.111 188.522  0.00  0.00    +0.023 HD
ATOM     44  H   UNL     1     153.773 167.173 188.054  0.00  0.00    +0.023 HD
ATOM     45  H   UNL     1     154.956 166.547 186.920  0.00  0.00    +0.023 HD
ENDBRANCH  32  42
BRANCH  29  46
ATOM     46  C   UNL     1     151.292 165.744 191.361  0.00  0.00    +0.036 C 
ATOM     47  H   UNL     1     151.131 164.729 191.739  0.00  0.00    +0.037 HD
ATOM     48  H   UNL     1     150.378 166.054 190.845  0.00  0.00    +0.037 HD
BRANCH  46  49
ATOM     49  C   UNL     1     151.530 166.627 192.568  0.00  0.00    +0.158 C 
ATOM     50  O   UNL     1     151.627 167.850 192.465  0.00  0.00    -0.293 OA
BRANCH  49  52
ATOM     51  C   UNL     1     150.611 165.763 194.691  0.00  0.00    -0.084 C 
ATOM     52  C   UNL     1     151.672 165.945 193.890  0.00  0.00    -0.023 C 
ATOM     53  H   UNL     1     149.628 166.109 194.373  0.00  0.00    +0.057 HD
ATOM     54  H   UNL     1     152.662 165.607 194.174  0.00  0.00    +0.065 HD
BRANCH  51  55
ATOM     55  C   UNL     1     150.686 165.116 196.032  0.00  0.00    -0.046 C 
ATOM     56  H   UNL     1     151.686 164.717 196.245  0.00  0.00    +0.027 HD
ATOM     57  H   UNL     1     149.965 164.289 196.102  0.00  0.00    +0.027 HD
ATOM     58  H   UNL     1     150.440 165.846 196.812  0.00  0.00    +0.027 HD
ENDBRANCH  51  55
ENDBRANCH  49  52
ENDBRANCH  46  49
ENDBRANCH  29  46
ENDBRANCH  26  33
ENDBRANCH  22  26
ENDBRANCH  19  24
ENDBRANCH  17  19
BRANCH  17  59
ATOM     59  O   UNL     1     147.796 166.643 186.504  0.00  0.00    -0.390 OA
ATOM     60  H   UNL     1     147.058 167.082 186.963  0.00  0.00    +0.210 HD
ENDBRANCH  17  59
ENDBRANCH  11  17
ENDBRANCH   7  11
ENDBRANCH   4   9
ENDBRANCH   1   4
BRANCH   1  61
ATOM     61  C   UNL     1     147.848 167.024 192.297  0.00  0.00    -0.025 C 
ATOM     62  H   UNL     1     147.918 166.351 191.432  0.00  0.00    +0.029 HD
ATOM     63  H   UNL     1     148.663 166.771 192.985  0.00  0.00    +0.029 HD
BRANCH  61  64
ATOM     64  C   UNL     1     146.490 166.830 192.995  0.00  0.00    +0.065 C 
ATOM     65  C   UNL     1     146.561 165.754 194.101  0.00  0.00    -0.017 C 
ATOM     66  C   UNL     1     145.172 165.156 194.390  0.00  0.00    -0.043 C 
ATOM     67  C   UNL     1     144.069 166.120 193.971  0.00  0.00    +0.002 C 
ATOM     68  C   UNL     1     144.179 166.482 192.473  0.00  0.00    +0.171 C 
ATOM     69  O   UNL     1     145.538 166.407 192.016  0.00  0.00    -0.345 OA
ATOM     70  C   UNL     1     143.359 165.502 191.619  0.00  0.00    +0.002 C 
ATOM     71  C   UNL     1     143.424 165.859 190.132  0.00  0.00    -0.046 C 
ATOM     72  C   UNL     1     143.625 167.355 189.910  0.00  0.00    -0.026 C 
ATOM     73  C   UNL     1     143.074 168.158 191.086  0.00  0.00    +0.062 C 
ATOM     74  O   UNL     1     143.691 167.822 192.335  0.00  0.00    -0.345 OA
ATOM     75  H   UNL     1     146.174 167.798 193.410  0.00  0.00    +0.060 HD
ATOM     76  H   UNL     1     147.194 164.924 193.760  0.00  0.00    +0.032 HD
ATOM     77  H   UNL     1     145.060 164.892 195.449  0.00  0.00    +0.027 HD
ATOM     78  H   UNL     1     145.061 164.220 193.825  0.00  0.00    +0.027 HD
ATOM     79  H   UNL     1     144.148 167.029 194.583  0.00  0.00    +0.032 HD
ATOM     80  H   UNL     1     143.079 165.700 194.202  0.00  0.00    +0.032 HD
ATOM     81  H   UNL     1     142.309 165.532 191.933  0.00  0.00    +0.032 HD
ATOM     82  H   UNL     1     143.706 164.471 191.749  0.00  0.00    +0.032 HD
ATOM     83  H   UNL     1     144.236 165.309 189.646  0.00  0.00    +0.027 HD
ATOM     84  H   UNL     1     142.499 165.525 189.647  0.00  0.00    +0.027 HD
ATOM     85  H   UNL     1     144.700 167.536 189.797  0.00  0.00    +0.029 HD
ATOM     86  H   UNL     1     143.151 167.655 188.968  0.00  0.00    +0.029 HD
ATOM     87  H   UNL     1     142.007 167.932 191.191  0.00  0.00    +0.060 HD
BRANCH  65  88
ATOM     88  C   UNL     1     147.198 166.311 195.384  0.00  0.00    -0.060 C 
ATOM     89  H   UNL     1     147.131 167.403 195.401  0.00  0.00    +0.023 HD
ATOM     90  H   UNL     1     148.255 166.033 195.448  0.00  0.00    +0.023 HD
ATOM     91  H   UNL     1     146.689 165.935 196.274  0.00  0.00    +0.023 HD
ENDBRANCH  65  88
BRANCH  73  92
ATOM     92  C   UNL     1     143.190 169.679 190.878  0.00  0.00    -0.026 C 
ATOM     93  H   UNL     1     143.102 170.166 191.861  0.00  0.00    +0.029 HD
ATOM     94  H   UNL     1     142.354 170.020 190.255  0.00  0.00    +0.029 HD
BRANCH  92  95
ATOM     95  C   UNL     1     144.527 170.103 190.255  0.00  0.00    -0.045 C 
ATOM     96  H   UNL     1     144.531 169.862 189.186  0.00  0.00    +0.027 HD
ATOM     97  H   UNL     1     145.333 169.517 190.715  0.00  0.00    +0.027 HD
BRANCH  95  98
ATOM     98  C   UNL     1     144.849 171.602 190.439  0.00  0.00    -0.025 C 
ATOM     99  H   UNL     1     144.401 171.926 191.382  0.00  0.00    +0.034 HD
BRANCH  98 100
ATOM    100  C   UNL     1     144.272 172.465 189.319  0.00  0.00    -0.059 C 
ATOM    101  H   UNL     1     143.508 171.924 188.748  0.00  0.00    +0.024 HD
ATOM    102  H   UNL     1     145.060 172.780 188.622  0.00  0.00    +0.024 HD
ATOM    103  H   UNL     1     143.814 173.374 189.721  0.00  0.00    +0.024 HD
ENDBRANCH  98 100
BRANCH  98 104
ATOM    104  C   UNL     1     146.356 171.760 190.474  0.00  0.00    -0.080 C 
ATOM    105  C   UNL     1     147.109 172.431 191.373  0.00  0.00    -0.048 C 
ATOM    106  H   UNL     1     146.865 171.217 189.678  0.00  0.00    +0.058 HD
BRANCH 105 107
ATOM    107  C   UNL     1     146.539 173.244 192.507  0.00  0.00    -0.041 C 
ATOM    108  H   UNL     1     147.136 173.106 193.414  0.00  0.00    +0.028 HD
ATOM    109  H   UNL     1     145.504 172.986 192.747  0.00  0.00    +0.028 HD
ATOM    110  H   UNL     1     146.531 174.310 192.261  0.00  0.00    +0.028 HD
ENDBRANCH 105 107
BRANCH 105 111
ATOM    111  C   UNL     1     148.622 172.379 191.292  0.00  0.00    +0.073 C 
ATOM    112  H   UNL     1     148.942 171.481 190.750  0.00  0.00    +0.064 HD
BRANCH 111 113
ATOM    113  C   UNL     1     149.276 172.370 192.667  0.00  0.00    -0.035 C 
ATOM    114  H   UNL     1     149.087 173.305 193.209  0.00  0.00    +0.026 HD
ATOM    115  H   UNL     1     148.923 171.536 193.281  0.00  0.00    +0.026 HD
ATOM    116  H   UNL     1     150.366 172.288 192.571  0.00  0.00    +0.026 HD
ENDBRANCH 111 113
BRANCH 111 117
ATOM    117  O   UNL     1     149.080 173.498 190.541  0.00  0.00    -0.388 OA
ATOM    118  H   UNL     1     149.960 173.730 190.878  0.00  0.00    +0.210 HD
ENDBRANCH 111 117
ENDBRANCH 105 111
ENDBRANCH  98 104
ENDBRANCH  95  98
ENDBRANCH  92  95
ENDBRANCH  73  92
ENDBRANCH  61  64
ENDBRANCH   1  61
TORSDOF 27
ENDMDL
MODEL 5
REMARK VINA RESULT:      -6.1      1.638      2.457
REMARK  Name = Bistramide A_conf2
REMARK  27 active torsions:
REMARK  status: ('A' for Active; 'I' for Inactive)
REMARK    1  A    between atoms: C_1  and  C_2
REMARK    2  A    between atoms: C_3  and  C_4
REMARK    3  A    between atoms: C_4  and  C_6
REMARK    4  A    between atoms: C_6  and  C_7
REMARK    5  A    between atoms: C_10  and  C_50
REMARK    6  A    between atoms: C_11  and  C_13
REMARK    7  A    between atoms: C_13  and  C_14
REMARK    8  A    between atoms: N_16  and  C_17
REMARK    9  A    between atoms: C_17  and  C_18
REMARK   10  A    between atoms: C_18  and  C_19
REMARK   11  A    between atoms: C_18  and  O_49
REMARK   12  A    between atoms: C_19  and  C_20
REMARK   13  A    between atoms: C_19  and  C_21
REMARK   14  A    between atoms: N_23  and  C_24
REMARK   15  A    between atoms: C_24  and  C_25
REMARK   16  A    between atoms: C_25  and  C_26
REMARK   17  A    between atoms: C_26  and  C_27
REMARK   18  A    between atoms: C_28  and  C_48
REMARK   19  A    between atoms: C_36  and  C_38
REMARK   20  A    between atoms: C_38  and  C_39
REMARK   21  A    between atoms: C_39  and  C_40
REMARK   22  A    between atoms: C_40  and  C_41
REMARK   23  A    between atoms: C_40  and  C_42
REMARK   24  A    between atoms: C_43  and  C_44
REMARK   25  A    between atoms: C_43  and  C_45
REMARK   26  A    between atoms: C_45  and  C_46
REMARK   27  A    between atoms: C_45  and  O_47
REMARK                            x       y       z     vdW  Elec       q    Type
REMARK                         _______ _______ _______ _____ _____    ______ ____
ROOT
ATOM      1  C   UNL     1     151.337 169.339 191.546  0.00  0.00    -0.035 C 
ATOM      2  H   UNL     1     152.383 169.075 191.725  0.00  0.00    +0.028 HD
ATOM      3  H   UNL     1     151.304 169.869 190.585  0.00  0.00    +0.028 HD
ENDROOT
BRANCH   1   4
ATOM      4  C   UNL     1     150.853 170.282 192.640  0.00  0.00    +0.012 C 
ATOM      5  H   UNL     1     150.795 169.754 193.602  0.00  0.00    +0.046 HD
ATOM      6  H   UNL     1     151.543 171.124 192.756  0.00  0.00    +0.046 HD
BRANCH   4   9
ATOM      7  C   UNL     1     149.087 172.010 192.755  0.00  0.00    +0.218 C 
ATOM      8  O   UNL     1     149.738 172.735 193.502  0.00  0.00    -0.275 OA
ATOM      9  N   UNL     1     149.523 170.770 192.340  0.00  0.00    -0.315 N 
ATOM     10  H   UNL     1     148.932 170.216 191.735  0.00  0.00    +0.149 HD
BRANCH   7  11
ATOM     11  C   UNL     1     147.676 172.359 192.277  0.00  0.00    +0.060 C 
ATOM     12  H   UNL     1     147.067 171.443 192.321  0.00  0.00    +0.042 HD
BRANCH  11  13
ATOM     13  C   UNL     1     147.108 173.373 193.273  0.00  0.00    -0.052 C 
ATOM     14  H   UNL     1     146.315 172.925 193.884  0.00  0.00    +0.024 HD
ATOM     15  H   UNL     1     147.882 173.730 193.961  0.00  0.00    +0.024 HD
ATOM     16  H   UNL     1     146.699 174.248 192.762  0.00  0.00    +0.024 HD
ENDBRANCH  11  13
BRANCH  11  17
ATOM     17  C   UNL     1     147.742 172.849 190.817  0.00  0.00    +0.081 C 
ATOM     18  H   UNL     1     147.445 173.904 190.734  0.00  0.00    +0.062 HD
BRANCH  17  19
ATOM     19  C   UNL     1     146.894 172.037 189.821  0.00  0.00    +0.038 C 
ATOM     20  H   UNL     1     145.826 172.211 189.995  0.00  0.00    +0.049 HD
ATOM     21  H   UNL     1     147.134 172.304 188.787  0.00  0.00    +0.049 HD
BRANCH  19  24
ATOM     22  C   UNL     1     146.743 169.665 189.041  0.00  0.00    +0.216 C 
ATOM     23  O   UNL     1     145.992 169.931 188.108  0.00  0.00    -0.276 OA
ATOM     24  N   UNL     1     147.187 170.609 189.941  0.00  0.00    -0.313 N 
ATOM     25  H   UNL     1     147.794 170.317 190.698  0.00  0.00    +0.149 HD
BRANCH  22  26
ATOM     26  C   UNL     1     147.233 168.269 189.350  0.00  0.00    +0.050 C 
ATOM     27  H   UNL     1     148.138 168.371 189.959  0.00  0.00    +0.038 HD
ATOM     28  H   UNL     1     147.554 167.765 188.431  0.00  0.00    +0.038 HD
BRANCH  26  33
ATOM     29  C   UNL     1     146.162 166.182 192.206  0.00  0.00    +0.066 C 
ATOM     30  C   UNL     1     144.780 165.773 191.712  0.00  0.00    -0.026 C 
ATOM     31  C   UNL     1     144.845 165.289 190.267  0.00  0.00    -0.046 C 
ATOM     32  C   UNL     1     145.864 166.070 189.417  0.00  0.00    -0.017 C 
ATOM     33  C   UNL     1     146.203 167.417 190.097  0.00  0.00    +0.070 C 
ATOM     34  O   UNL     1     146.715 167.253 191.434  0.00  0.00    -0.372 OA
ATOM     35  H   UNL     1     146.844 165.329 192.109  0.00  0.00    +0.060 HD
ATOM     36  H   UNL     1     144.353 164.988 192.345  0.00  0.00    +0.029 HD
ATOM     37  H   UNL     1     144.098 166.629 191.770  0.00  0.00    +0.029 HD
ATOM     38  H   UNL     1     145.068 164.217 190.253  0.00  0.00    +0.027 HD
ATOM     39  H   UNL     1     143.847 165.392 189.824  0.00  0.00    +0.027 HD
ATOM     40  H   UNL     1     145.388 166.266 188.447  0.00  0.00    +0.032 HD
ATOM     41  H   UNL     1     145.281 168.005 190.181  0.00  0.00    +0.060 HD
BRANCH  32  42
ATOM     42  C   UNL     1     147.100 165.210 189.122  0.00  0.00    -0.060 C 
ATOM     43  H   UNL     1     147.993 165.814 188.942  0.00  0.00    +0.023 HD
ATOM     44  H   UNL     1     146.937 164.583 188.245  0.00  0.00    +0.023 HD
ATOM     45  H   UNL     1     147.306 164.533 189.960  0.00  0.00    +0.023 HD
ENDBRANCH  32  42
BRANCH  29  46
ATOM     46  C   UNL     1     146.115 166.628 193.665  0.00  0.00    +0.036 C 
ATOM     47  H   UNL     1     145.089 166.818 193.996  0.00  0.00    +0.037 HD
ATOM     48  H   UNL     1     146.684 167.553 193.801  0.00  0.00    +0.037 HD
BRANCH  46  49
ATOM     49  C   UNL     1     146.670 165.541 194.563  0.00  0.00    +0.158 C 
ATOM     50  O   UNL     1     145.969 164.610 194.958  0.00  0.00    -0.293 OA
BRANCH  49  52
ATOM     51  C   UNL     1     148.439 165.862 196.254  0.00  0.00    -0.084 C 
ATOM     52  C   UNL     1     148.102 165.665 194.971  0.00  0.00    -0.023 C 
ATOM     53  H   UNL     1     147.661 165.927 197.015  0.00  0.00    +0.057 HD
ATOM     54  H   UNL     1     148.851 165.589 194.192  0.00  0.00    +0.065 HD
BRANCH  51  55
ATOM     55  C   UNL     1     149.845 166.022 196.727  0.00  0.00    -0.046 C 
ATOM     56  H   UNL     1     150.486 165.189 196.411  0.00  0.00    +0.027 HD
ATOM     57  H   UNL     1     149.878 166.084 197.824  0.00  0.00    +0.027 HD
ATOM     58  H   UNL     1     150.270 166.948 196.324  0.00  0.00    +0.027 HD
ENDBRANCH  51  55
ENDBRANCH  49  52
ENDBRANCH  46  49
ENDBRANCH  29  46
ENDBRANCH  26  33
ENDBRANCH  22  26
ENDBRANCH  19  24
ENDBRANCH  17  19
BRANCH  17  59
ATOM     59  O   UNL     1     149.121 172.779 190.411  0.00  0.00    -0.390 OA
ATOM     60  H   UNL     1     149.414 173.691 190.234  0.00  0.00    +0.210 HD
ENDBRANCH  17  59
ENDBRANCH  11  17
ENDBRANCH   7  11
ENDBRANCH   4   9
ENDBRANCH   1   4
BRANCH   1  61
ATOM     61  C   UNL     1     150.480 168.073 191.459  0.00  0.00    -0.025 C 
ATOM     62  H   UNL     1     149.914 167.975 192.396  0.00  0.00    +0.029 HD
ATOM     63  H   UNL     1     149.758 168.182 190.642  0.00  0.00    +0.029 HD
BRANCH  61  64
ATOM     64  C   UNL     1     151.340 166.815 191.240  0.00  0.00    +0.065 C 
ATOM     65  C   UNL     1     152.325 166.583 192.407  0.00  0.00    -0.017 C 
ATOM     66  C   UNL     1     153.528 165.730 191.962  0.00  0.00    -0.043 C 
ATOM     67  C   UNL     1     153.176 164.893 190.739  0.00  0.00    +0.002 C 
ATOM     68  C   UNL     1     152.706 165.782 189.566  0.00  0.00    +0.171 C 
ATOM     69  O   UNL     1     152.098 166.993 190.041  0.00  0.00    -0.345 OA
ATOM     70  C   UNL     1     153.898 166.189 188.685  0.00  0.00    +0.002 C 
ATOM     71  C   UNL     1     153.454 167.043 187.496  0.00  0.00    -0.046 C 
ATOM     72  C   UNL     1     152.030 166.717 187.055  0.00  0.00    -0.026 C 
ATOM     73  C   UNL     1     151.666 165.280 187.417  0.00  0.00    +0.062 C 
ATOM     74  O   UNL     1     151.751 165.014 188.823  0.00  0.00    -0.345 OA
ATOM     75  H   UNL     1     150.668 165.954 191.117  0.00  0.00    +0.060 HD
ATOM     76  H   UNL     1     152.732 167.549 192.737  0.00  0.00    +0.032 HD
ATOM     77  H   UNL     1     153.884 165.083 192.773  0.00  0.00    +0.027 HD
ATOM     78  H   UNL     1     154.365 166.397 191.710  0.00  0.00    +0.027 HD
ATOM     79  H   UNL     1     152.381 164.186 191.016  0.00  0.00    +0.032 HD
ATOM     80  H   UNL     1     154.030 164.267 190.440  0.00  0.00    +0.032 HD
ATOM     81  H   UNL     1     154.390 165.289 188.297  0.00  0.00    +0.032 HD
ATOM     82  H   UNL     1     154.648 166.745 189.258  0.00  0.00    +0.032 HD
ATOM     83  H   UNL     1     153.520 168.106 187.748  0.00  0.00    +0.027 HD
ATOM     84  H   UNL     1     154.153 166.885 186.666  0.00  0.00    +0.027 HD
ATOM     85  H   UNL     1     151.355 167.419 187.557  0.00  0.00    +0.029 HD
ATOM     86  H   UNL     1     151.929 166.893 185.977  0.00  0.00    +0.029 HD
ATOM     87  H   UNL     1     152.377 164.606 186.926  0.00  0.00    +0.060 HD
BRANCH  65  88
ATOM     88  C   UNL     1     151.620 165.951 193.617  0.00  0.00    -0.060 C 
ATOM     89  H   UNL     1     150.671 165.499 193.314  0.00  0.00    +0.023 HD
ATOM     90  H   UNL     1     151.411 166.705 194.384  0.00  0.00    +0.023 HD
ATOM     91  H   UNL     1     152.232 165.166 194.066  0.00  0.00    +0.023 HD
ENDBRANCH  65  88
BRANCH  73  92
ATOM     92  C   UNL     1     150.261 164.878 186.931  0.00  0.00    -0.026 C 
ATOM     93  H   UNL     1     149.755 164.343 187.748  0.00  0.00    +0.029 HD
ATOM     94  H   UNL     1     150.359 164.189 186.083  0.00  0.00    +0.029 HD
BRANCH  92  95
ATOM     95  C   UNL     1     149.391 166.081 186.540  0.00  0.00    -0.045 C 
ATOM     96  H   UNL     1     150.021 166.967 186.407  0.00  0.00    +0.027 HD
ATOM     97  H   UNL     1     148.702 166.302 187.367  0.00  0.00    +0.027 HD
BRANCH  95  98
ATOM     98  C   UNL     1     148.557 165.854 185.260  0.00  0.00    -0.025 C 
ATOM     99  H   UNL     1     147.761 165.145 185.503  0.00  0.00    +0.034 HD
BRANCH  98 100
ATOM    100  C   UNL     1     149.386 165.264 184.121  0.00  0.00    -0.059 C 
ATOM    101  H   UNL     1     150.398 165.007 184.452  0.00  0.00    +0.024 HD
ATOM    102  H   UNL     1     149.469 165.977 183.290  0.00  0.00    +0.024 HD
ATOM    103  H   UNL     1     148.918 164.358 183.724  0.00  0.00    +0.024 HD
ENDBRANCH  98 100
BRANCH  98 104
ATOM    104  C   UNL     1     147.980 167.187 184.829  0.00  0.00    -0.080 C 
ATOM    105  C   UNL     1     146.762 167.703 185.101  0.00  0.00    -0.048 C 
ATOM    106  H   UNL     1     148.683 167.797 184.261  0.00  0.00    +0.058 HD
BRANCH 105 107
ATOM    107  C   UNL     1     145.685 166.963 185.853  0.00  0.00    -0.041 C 
ATOM    108  H   UNL     1     146.112 166.441 186.716  0.00  0.00    +0.028 HD
ATOM    109  H   UNL     1     145.161 166.223 185.243  0.00  0.00    +0.028 HD
ATOM    110  H   UNL     1     144.915 167.650 186.215  0.00  0.00    +0.028 HD
ENDBRANCH 105 107
BRANCH 105 111
ATOM    111  C   UNL     1     146.413 169.111 184.664  0.00  0.00    +0.073 C 
ATOM    112  H   UNL     1     146.195 169.132 183.590  0.00  0.00    +0.064 HD
BRANCH 111 113
ATOM    113  C   UNL     1     147.535 170.101 184.946  0.00  0.00    -0.035 C 
ATOM    114  H   UNL     1     147.196 170.921 185.592  0.00  0.00    +0.026 HD
ATOM    115  H   UNL     1     148.394 169.618 185.421  0.00  0.00    +0.026 HD
ATOM    116  H   UNL     1     147.876 170.568 184.014  0.00  0.00    +0.026 HD
ENDBRANCH 111 113
BRANCH 111 117
ATOM    117  O   UNL     1     145.224 169.519 185.333  0.00  0.00    -0.388 OA
ATOM    118  H   UNL     1     145.421 169.542 186.283  0.00  0.00    +0.210 HD
ENDBRANCH 111 117
ENDBRANCH 105 111
ENDBRANCH  98 104
ENDBRANCH  95  98
ENDBRANCH  92  95
ENDBRANCH  73  92
ENDBRANCH  61  64
ENDBRANCH   1  61
TORSDOF 27
ENDMDL
MODEL 6
REMARK VINA RESULT:      -6.1      1.961      4.044
REMARK  Name = Bistramide A_conf2
REMARK  27 active torsions:
REMARK  status: ('A' for Active; 'I' for Inactive)
REMARK    1  A    between atoms: C_1  and  C_2
REMARK    2  A    between atoms: C_3  and  C_4
REMARK    3  A    between atoms: C_4  and  C_6
REMARK    4  A    between atoms: C_6  and  C_7
REMARK    5  A    between atoms: C_10  and  C_50
REMARK    6  A    between atoms: C_11  and  C_13
REMARK    7  A    between atoms: C_13  and  C_14
REMARK    8  A    between atoms: N_16  and  C_17
REMARK    9  A    between atoms: C_17  and  C_18
REMARK   10  A    between atoms: C_18  and  C_19
REMARK   11  A    between atoms: C_18  and  O_49
REMARK   12  A    between atoms: C_19  and  C_20
REMARK   13  A    between atoms: C_19  and  C_21
REMARK   14  A    between atoms: N_23  and  C_24
REMARK   15  A    between atoms: C_24  and  C_25
REMARK   16  A    between atoms: C_25  and  C_26
REMARK   17  A    between atoms: C_26  and  C_27
REMARK   18  A    between atoms: C_28  and  C_48
REMARK   19  A    between atoms: C_36  and  C_38
REMARK   20  A    between atoms: C_38  and  C_39
REMARK   21  A    between atoms: C_39  and  C_40
REMARK   22  A    between atoms: C_40  and  C_41
REMARK   23  A    between atoms: C_40  and  C_42
REMARK   24  A    between atoms: C_43  and  C_44
REMARK   25  A    between atoms: C_43  and  C_45
REMARK   26  A    between atoms: C_45  and  C_46
REMARK   27  A    between atoms: C_45  and  O_47
REMARK                            x       y       z     vdW  Elec       q    Type
REMARK                         _______ _______ _______ _____ _____    ______ ____
ROOT
ATOM      1  C   UNL     1     148.958 168.517 191.529  0.00  0.00    -0.035 C 
ATOM      2  H   UNL     1     150.040 168.373 191.592  0.00  0.00    +0.028 HD
ATOM      3  H   UNL     1     148.615 167.958 190.648  0.00  0.00    +0.028 HD
ENDROOT
BRANCH   1   4
ATOM      4  C   UNL     1     148.649 169.993 191.319  0.00  0.00    +0.012 C 
ATOM      5  H   UNL     1     148.924 170.573 192.212  0.00  0.00    +0.046 HD
ATOM      6  H   UNL     1     149.216 170.389 190.470  0.00  0.00    +0.046 HD
BRANCH   4   9
ATOM      7  C   UNL     1     146.713 171.407 190.708  0.00  0.00    +0.218 C 
ATOM      8  O   UNL     1     147.386 172.430 190.630  0.00  0.00    -0.275 OA
ATOM      9  N   UNL     1     147.231 170.192 191.101  0.00  0.00    -0.315 N 
ATOM     10  H   UNL     1     146.619 169.389 191.159  0.00  0.00    +0.149 HD
BRANCH   7  11
ATOM     11  C   UNL     1     145.201 171.385 190.470  0.00  0.00    +0.060 C 
ATOM     12  H   UNL     1     144.801 170.464 190.920  0.00  0.00    +0.042 HD
BRANCH  11  13
ATOM     13  C   UNL     1     144.618 172.588 191.214  0.00  0.00    -0.052 C 
ATOM     14  H   UNL     1     144.715 173.505 190.618  0.00  0.00    +0.024 HD
ATOM     15  H   UNL     1     143.551 172.449 191.419  0.00  0.00    +0.024 HD
ATOM     16  H   UNL     1     145.116 172.746 192.173  0.00  0.00    +0.024 HD
ENDBRANCH  11  13
BRANCH  11  17
ATOM     17  C   UNL     1     144.927 171.363 188.953  0.00  0.00    +0.081 C 
ATOM     18  H   UNL     1     144.491 172.312 188.611  0.00  0.00    +0.062 HD
BRANCH  17  19
ATOM     19  C   UNL     1     144.014 170.220 188.476  0.00  0.00    +0.038 C 
ATOM     20  H   UNL     1     143.165 170.619 187.908  0.00  0.00    +0.049 HD
ATOM     21  H   UNL     1     144.561 169.512 187.846  0.00  0.00    +0.049 HD
BRANCH  19  24
ATOM     22  C   UNL     1     142.273 169.612 190.166  0.00  0.00    +0.216 C 
ATOM     23  O   UNL     1     141.495 170.489 189.805  0.00  0.00    -0.276 OA
ATOM     24  N   UNL     1     143.523 169.443 189.614  0.00  0.00    -0.313 N 
ATOM     25  H   UNL     1     144.121 168.706 189.971  0.00  0.00    +0.149 HD
BRANCH  22  26
ATOM     26  C   UNL     1     141.980 168.644 191.291  0.00  0.00    +0.050 C 
ATOM     27  H   UNL     1     141.120 168.039 190.981  0.00  0.00    +0.038 HD
ATOM     28  H   UNL     1     141.650 169.187 192.184  0.00  0.00    +0.038 HD
BRANCH  26  33
ATOM     29  C   UNL     1     143.894 165.504 190.924  0.00  0.00    +0.066 C 
ATOM     30  C   UNL     1     144.976 165.748 191.968  0.00  0.00    -0.026 C 
ATOM     31  C   UNL     1     144.363 166.237 193.277  0.00  0.00    -0.046 C 
ATOM     32  C   UNL     1     143.152 167.162 193.064  0.00  0.00    -0.017 C 
ATOM     33  C   UNL     1     143.161 167.728 191.624  0.00  0.00    +0.070 C 
ATOM     34  O   UNL     1     143.161 166.695 190.620  0.00  0.00    -0.372 OA
ATOM     35  H   UNL     1     143.176 164.775 191.316  0.00  0.00    +0.060 HD
ATOM     36  H   UNL     1     145.558 164.838 192.151  0.00  0.00    +0.029 HD
ATOM     37  H   UNL     1     145.681 166.504 191.602  0.00  0.00    +0.029 HD
ATOM     38  H   UNL     1     144.089 165.373 193.894  0.00  0.00    +0.027 HD
ATOM     39  H   UNL     1     145.136 166.773 193.841  0.00  0.00    +0.027 HD
ATOM     40  H   UNL     1     143.253 167.991 193.777  0.00  0.00    +0.032 HD
ATOM     41  H   UNL     1     144.083 168.306 191.485  0.00  0.00    +0.060 HD
BRANCH  32  42
ATOM     42  C   UNL     1     141.845 166.443 193.425  0.00  0.00    -0.060 C 
ATOM     43  H   UNL     1     140.990 167.122 193.449  0.00  0.00    +0.023 HD
ATOM     44  H   UNL     1     141.921 165.965 194.402  0.00  0.00    +0.023 HD
ATOM     45  H   UNL     1     141.633 165.646 192.701  0.00  0.00    +0.023 HD
ENDBRANCH  32  42
BRANCH  29  46
ATOM     46  C   UNL     1     144.494 164.975 189.624  0.00  0.00    +0.036 C 
ATOM     47  H   UNL     1     143.777 165.026 188.798  0.00  0.00    +0.037 HD
ATOM     48  H   UNL     1     144.793 163.928 189.738  0.00  0.00    +0.037 HD
BRANCH  46  49
ATOM     49  C   UNL     1     145.688 165.814 189.218  0.00  0.00    +0.158 C 
ATOM     50  O   UNL     1     145.606 167.036 189.094  0.00  0.00    -0.293 OA
BRANCH  49  52
ATOM     51  C   UNL     1     147.105 164.315 187.862  0.00  0.00    -0.084 C 
ATOM     52  C   UNL     1     146.966 165.089 188.949  0.00  0.00    -0.023 C 
ATOM     53  H   UNL     1     146.279 164.217 187.158  0.00  0.00    +0.057 HD
ATOM     54  H   UNL     1     147.771 165.214 189.664  0.00  0.00    +0.065 HD
BRANCH  51  55
ATOM     55  C   UNL     1     148.341 163.543 187.546  0.00  0.00    -0.046 C 
ATOM     56  H   UNL     1     148.718 162.990 188.416  0.00  0.00    +0.027 HD
ATOM     57  H   UNL     1     149.137 164.216 187.197  0.00  0.00    +0.027 HD
ATOM     58  H   UNL     1     148.136 162.820 186.749  0.00  0.00    +0.027 HD
ENDBRANCH  51  55
ENDBRANCH  49  52
ENDBRANCH  46  49
ENDBRANCH  29  46
ENDBRANCH  26  33
ENDBRANCH  22  26
ENDBRANCH  19  24
ENDBRANCH  17  19
BRANCH  17  59
ATOM     59  O   UNL     1     146.201 171.237 188.296  0.00  0.00    -0.390 OA
ATOM     60  H   UNL     1     146.850 171.724 188.835  0.00  0.00    +0.210 HD
ENDBRANCH  17  59
ENDBRANCH  11  17
ENDBRANCH   7  11
ENDBRANCH   4   9
ENDBRANCH   1   4
BRANCH   1  61
ATOM     61  C   UNL     1     148.277 167.961 192.782  0.00  0.00    -0.025 C 
ATOM     62  H   UNL     1     148.205 168.769 193.523  0.00  0.00    +0.029 HD
ATOM     63  H   UNL     1     147.258 167.646 192.530  0.00  0.00    +0.029 HD
BRANCH  61  64
ATOM     64  C   UNL     1     149.061 166.779 193.381  0.00  0.00    +0.065 C 
ATOM     65  C   UNL     1     148.722 166.562 194.872  0.00  0.00    -0.017 C 
ATOM     66  C   UNL     1     149.856 165.818 195.601  0.00  0.00    -0.043 C 
ATOM     67  C   UNL     1     150.699 165.017 194.617  0.00  0.00    +0.002 C 
ATOM     68  C   UNL     1     151.294 165.925 193.518  0.00  0.00    +0.171 C 
ATOM     69  O   UNL     1     150.457 167.066 193.274  0.00  0.00    -0.345 OA
ATOM     70  C   UNL     1     152.672 166.456 193.943  0.00  0.00    +0.002 C 
ATOM     71  C   UNL     1     153.299 167.332 192.856  0.00  0.00    -0.046 C 
ATOM     72  C   UNL     1     152.840 166.928 191.458  0.00  0.00    -0.026 C 
ATOM     73  C   UNL     1     152.449 165.452 191.421  0.00  0.00    +0.062 C 
ATOM     74  O   UNL     1     151.390 165.128 192.331  0.00  0.00    -0.345 OA
ATOM     75  H   UNL     1     148.832 165.879 192.792  0.00  0.00    +0.060 HD
ATOM     76  H   UNL     1     148.619 167.537 195.367  0.00  0.00    +0.032 HD
ATOM     77  H   UNL     1     149.466 165.160 196.387  0.00  0.00    +0.027 HD
ATOM     78  H   UNL     1     150.499 166.553 196.105  0.00  0.00    +0.027 HD
ATOM     79  H   UNL     1     150.064 164.244 194.162  0.00  0.00    +0.032 HD
ATOM     80  H   UNL     1     151.492 164.467 195.145  0.00  0.00    +0.032 HD
ATOM     81  H   UNL     1     153.346 165.613 194.134  0.00  0.00    +0.032 HD
ATOM     82  H   UNL     1     152.609 167.036 194.870  0.00  0.00    +0.032 HD
ATOM     83  H   UNL     1     153.049 168.384 193.027  0.00  0.00    +0.027 HD
ATOM     84  H   UNL     1     154.390 167.263 192.931  0.00  0.00    +0.027 HD
ATOM     85  H   UNL     1     151.982 167.555 191.191  0.00  0.00    +0.029 HD
ATOM     86  H   UNL     1     153.632 167.146 190.732  0.00  0.00    +0.029 HD
ATOM     87  H   UNL     1     153.317 164.855 191.721  0.00  0.00    +0.060 HD
BRANCH  65  88
ATOM     88  C   UNL     1     147.384 165.825 195.041  0.00  0.00    -0.060 C 
ATOM     89  H   UNL     1     146.939 165.611 194.064  0.00  0.00    +0.023 HD
ATOM     90  H   UNL     1     146.674 166.431 195.614  0.00  0.00    +0.023 HD
ATOM     91  H   UNL     1     147.519 164.873 195.558  0.00  0.00    +0.023 HD
ENDBRANCH  65  88
BRANCH  73  92
ATOM     92  C   UNL     1     152.043 164.976 190.013  0.00  0.00    -0.026 C 
ATOM     93  H   UNL     1     151.868 163.891 190.056  0.00  0.00    +0.029 HD
ATOM     94  H   UNL     1     152.875 165.158 189.321  0.00  0.00    +0.029 HD
BRANCH  92  95
ATOM     95  C   UNL     1     150.763 165.646 189.495  0.00  0.00    -0.045 C 
ATOM     96  H   UNL     1     150.469 166.457 190.170  0.00  0.00    +0.027 HD
ATOM     97  H   UNL     1     149.949 164.909 189.510  0.00  0.00    +0.027 HD
BRANCH  95  98
ATOM     98  C   UNL     1     150.891 166.201 188.059  0.00  0.00    -0.025 C 
ATOM     99  H   UNL     1     150.815 165.357 187.368  0.00  0.00    +0.034 HD
BRANCH  98 100
ATOM    100  C   UNL     1     152.232 166.891 187.818  0.00  0.00    -0.059 C 
ATOM    101  H   UNL     1     153.053 166.359 188.312  0.00  0.00    +0.024 HD
ATOM    102  H   UNL     1     152.215 167.921 188.199  0.00  0.00    +0.024 HD
ATOM    103  H   UNL     1     152.458 166.946 186.748  0.00  0.00    +0.024 HD
ENDBRANCH  98 100
BRANCH  98 104
ATOM    104  C   UNL     1     149.765 167.189 187.833  0.00  0.00    -0.080 C 
ATOM    105  C   UNL     1     148.969 167.321 186.749  0.00  0.00    -0.048 C 
ATOM    106  H   UNL     1     149.577 167.833 188.692  0.00  0.00    +0.058 HD
BRANCH 105 107
ATOM    107  C   UNL     1     149.132 166.517 185.484  0.00  0.00    -0.041 C 
ATOM    108  H   UNL     1     148.449 166.882 184.709  0.00  0.00    +0.028 HD
ATOM    109  H   UNL     1     148.938 165.450 185.621  0.00  0.00    +0.028 HD
ATOM    110  H   UNL     1     150.154 166.589 185.101  0.00  0.00    +0.028 HD
ENDBRANCH 105 107
BRANCH 105 111
ATOM    111  C   UNL     1     147.820 168.309 186.761  0.00  0.00    +0.073 C 
ATOM    112  H   UNL     1     146.866 167.782 186.639  0.00  0.00    +0.064 HD
BRANCH 111 113
ATOM    113  C   UNL     1     147.938 169.351 185.657  0.00  0.00    -0.035 C 
ATOM    114  H   UNL     1     146.952 169.647 185.276  0.00  0.00    +0.026 HD
ATOM    115  H   UNL     1     148.461 170.248 186.000  0.00  0.00    +0.026 HD
ATOM    116  H   UNL     1     148.485 168.940 184.800  0.00  0.00    +0.026 HD
ENDBRANCH 111 113
BRANCH 111 117
ATOM    117  O   UNL     1     147.776 168.947 188.033  0.00  0.00    -0.388 OA
ATOM    118  H   UNL     1     148.659 169.314 188.201  0.00  0.00    +0.210 HD
ENDBRANCH 111 117
ENDBRANCH 105 111
ENDBRANCH  98 104
ENDBRANCH  95  98
ENDBRANCH  92  95
ENDBRANCH  73  92
ENDBRANCH  61  64
ENDBRANCH   1  61
TORSDOF 27
ENDMDL
MODEL 7
REMARK VINA RESULT:      -6.1      2.115      8.139
REMARK  Name = Bistramide A_conf2
REMARK  27 active torsions:
REMARK  status: ('A' for Active; 'I' for Inactive)
REMARK    1  A    between atoms: C_1  and  C_2
REMARK    2  A    between atoms: C_3  and  C_4
REMARK    3  A    between atoms: C_4  and  C_6
REMARK    4  A    between atoms: C_6  and  C_7
REMARK    5  A    between atoms: C_10  and  C_50
REMARK    6  A    between atoms: C_11  and  C_13
REMARK    7  A    between atoms: C_13  and  C_14
REMARK    8  A    between atoms: N_16  and  C_17
REMARK    9  A    between atoms: C_17  and  C_18
REMARK   10  A    between atoms: C_18  and  C_19
REMARK   11  A    between atoms: C_18  and  O_49
REMARK   12  A    between atoms: C_19  and  C_20
REMARK   13  A    between atoms: C_19  and  C_21
REMARK   14  A    between atoms: N_23  and  C_24
REMARK   15  A    between atoms: C_24  and  C_25
REMARK   16  A    between atoms: C_25  and  C_26
REMARK   17  A    between atoms: C_26  and  C_27
REMARK   18  A    between atoms: C_28  and  C_48
REMARK   19  A    between atoms: C_36  and  C_38
REMARK   20  A    between atoms: C_38  and  C_39
REMARK   21  A    between atoms: C_39  and  C_40
REMARK   22  A    between atoms: C_40  and  C_41
REMARK   23  A    between atoms: C_40  and  C_42
REMARK   24  A    between atoms: C_43  and  C_44
REMARK   25  A    between atoms: C_43  and  C_45
REMARK   26  A    between atoms: C_45  and  C_46
REMARK   27  A    between atoms: C_45  and  O_47
REMARK                            x       y       z     vdW  Elec       q    Type
REMARK                         _______ _______ _______ _____ _____    ______ ____
ROOT
ATOM      1  C   UNL     1     145.945 170.221 189.353  0.00  0.00    -0.035 C 
ATOM      2  H   UNL     1     145.068 170.088 189.993  0.00  0.00    +0.028 HD
ATOM      3  H   UNL     1     145.579 170.249 188.317  0.00  0.00    +0.028 HD
ENDROOT
BRANCH   1   4
ATOM      4  C   UNL     1     146.878 169.027 189.508  0.00  0.00    +0.012 C 
ATOM      5  H   UNL     1     147.601 169.208 190.315  0.00  0.00    +0.046 HD
ATOM      6  H   UNL     1     146.310 168.124 189.755  0.00  0.00    +0.046 HD
BRANCH   4   9
ATOM      7  C   UNL     1     147.809 167.561 187.745  0.00  0.00    +0.218 C 
ATOM      8  O   UNL     1     147.436 166.530 188.299  0.00  0.00    -0.275 OA
ATOM      9  N   UNL     1     147.639 168.814 188.294  0.00  0.00    -0.315 N 
ATOM     10  H   UNL     1     147.981 169.623 187.793  0.00  0.00    +0.149 HD
BRANCH   7  11
ATOM     11  C   UNL     1     148.589 167.565 186.429  0.00  0.00    +0.060 C 
ATOM     12  H   UNL     1     148.181 166.767 185.791  0.00  0.00    +0.042 HD
BRANCH  11  13
ATOM     13  C   UNL     1     148.322 168.914 185.759  0.00  0.00    -0.052 C 
ATOM     14  H   UNL     1     147.486 169.437 186.243  0.00  0.00    +0.024 HD
ATOM     15  H   UNL     1     149.195 169.572 185.828  0.00  0.00    +0.024 HD
ATOM     16  H   UNL     1     148.087 168.795 184.699  0.00  0.00    +0.024 HD
ENDBRANCH  11  13
BRANCH  11  17
ATOM     17  C   UNL     1     150.073 167.267 186.720  0.00  0.00    +0.081 C 
ATOM     18  H   UNL     1     150.728 168.043 186.301  0.00  0.00    +0.062 HD
BRANCH  17  19
ATOM     19  C   UNL     1     150.571 165.901 186.213  0.00  0.00    +0.038 C 
ATOM     20  H   UNL     1     150.010 165.087 186.688  0.00  0.00    +0.049 HD
ATOM     21  H   UNL     1     150.465 165.819 185.127  0.00  0.00    +0.049 HD
BRANCH  19  24
ATOM     22  C   UNL     1     152.912 165.333 185.538  0.00  0.00    +0.216 C 
ATOM     23  O   UNL     1     152.592 164.988 184.406  0.00  0.00    -0.276 OA
ATOM     24  N   UNL     1     151.999 165.740 186.486  0.00  0.00    -0.313 N 
ATOM     25  H   UNL     1     152.332 165.997 187.409  0.00  0.00    +0.149 HD
BRANCH  22  26
ATOM     26  C   UNL     1     154.334 165.307 186.051  0.00  0.00    +0.050 C 
ATOM     27  H   UNL     1     154.725 166.328 185.972  0.00  0.00    +0.038 HD
ATOM     28  H   UNL     1     154.965 164.699 185.392  0.00  0.00    +0.038 HD
BRANCH  26  33
ATOM     29  C   UNL     1     154.501 165.894 189.696  0.00  0.00    +0.066 C 
ATOM     30  C   UNL     1     154.728 164.464 190.169  0.00  0.00    -0.026 C 
ATOM     31  C   UNL     1     155.829 163.794 189.352  0.00  0.00    -0.046 C 
ATOM     32  C   UNL     1     155.821 164.217 187.873  0.00  0.00    -0.017 C 
ATOM     33  C   UNL     1     154.448 164.823 187.500  0.00  0.00    +0.070 C 
ATOM     34  O   UNL     1     154.092 165.949 188.325  0.00  0.00    -0.372 OA
ATOM     35  H   UNL     1     155.441 166.451 189.775  0.00  0.00    +0.060 HD
ATOM     36  H   UNL     1     154.991 164.438 191.232  0.00  0.00    +0.029 HD
ATOM     37  H   UNL     1     153.803 163.886 190.060  0.00  0.00    +0.029 HD
ATOM     38  H   UNL     1     156.801 164.004 189.812  0.00  0.00    +0.027 HD
ATOM     39  H   UNL     1     155.696 162.707 189.420  0.00  0.00    +0.027 HD
ATOM     40  H   UNL     1     155.986 163.308 187.279  0.00  0.00    +0.032 HD
ATOM     41  H   UNL     1     153.677 164.059 187.658  0.00  0.00    +0.060 HD
BRANCH  32  42
ATOM     42  C   UNL     1     157.000 165.150 187.566  0.00  0.00    -0.060 C 
ATOM     43  H   UNL     1     157.643 165.307 188.434  0.00  0.00    +0.023 HD
ATOM     44  H   UNL     1     156.647 166.125 187.229  0.00  0.00    +0.023 HD
ATOM     45  H   UNL     1     157.612 164.740 186.753  0.00  0.00    +0.023 HD
ENDBRANCH  32  42
BRANCH  29  46
ATOM     46  C   UNL     1     153.430 166.587 190.535  0.00  0.00    +0.036 C 
ATOM     47  H   UNL     1     153.125 167.540 190.093  0.00  0.00    +0.037 HD
ATOM     48  H   UNL     1     153.807 166.794 191.542  0.00  0.00    +0.037 HD
BRANCH  46  49
ATOM     49  C   UNL     1     152.188 165.724 190.614  0.00  0.00    +0.158 C 
ATOM     50  O   UNL     1     151.621 165.314 189.602  0.00  0.00    -0.293 OA
BRANCH  49  52
ATOM     51  C   UNL     1     152.128 166.058 193.060  0.00  0.00    -0.084 C 
ATOM     52  C   UNL     1     151.663 165.415 191.979  0.00  0.00    -0.023 C 
ATOM     53  H   UNL     1     152.896 166.823 192.946  0.00  0.00    +0.057 HD
ATOM     54  H   UNL     1     150.895 164.653 192.057  0.00  0.00    +0.065 HD
BRANCH  51  55
ATOM     55  C   UNL     1     151.669 165.780 194.451  0.00  0.00    -0.046 C 
ATOM     56  H   UNL     1     151.137 166.634 194.891  0.00  0.00    +0.027 HD
ATOM     57  H   UNL     1     152.524 165.538 195.098  0.00  0.00    +0.027 HD
ATOM     58  H   UNL     1     150.989 164.920 194.455  0.00  0.00    +0.027 HD
ENDBRANCH  51  55
ENDBRANCH  49  52
ENDBRANCH  46  49
ENDBRANCH  29  46
ENDBRANCH  26  33
ENDBRANCH  22  26
ENDBRANCH  19  24
ENDBRANCH  17  19
BRANCH  17  59
ATOM     59  O   UNL     1     150.242 167.315 188.148  0.00  0.00    -0.390 OA
ATOM     60  H   UNL     1     150.584 168.200 188.365  0.00  0.00    +0.210 HD
ENDBRANCH  17  59
ENDBRANCH  11  17
ENDBRANCH   7  11
ENDBRANCH   4   9
ENDBRANCH   1   4
BRANCH   1  61
ATOM     61  C   UNL     1     146.645 171.542 189.682  0.00  0.00    -0.025 C 
ATOM     62  H   UNL     1     147.499 171.658 189.001  0.00  0.00    +0.029 HD
ATOM     63  H   UNL     1     145.954 172.373 189.496  0.00  0.00    +0.029 HD
BRANCH  61  64
ATOM     64  C   UNL     1     147.136 171.581 191.140  0.00  0.00    +0.065 C 
ATOM     65  C   UNL     1     147.166 173.021 191.698  0.00  0.00    -0.017 C 
ATOM     66  C   UNL     1     148.152 173.144 192.875  0.00  0.00    -0.043 C 
ATOM     67  C   UNL     1     148.387 171.789 193.529  0.00  0.00    +0.002 C 
ATOM     68  C   UNL     1     148.919 170.757 192.510  0.00  0.00    +0.171 C 
ATOM     69  O   UNL     1     148.465 171.054 191.181  0.00  0.00    -0.345 OA
ATOM     70  C   UNL     1     150.456 170.773 192.478  0.00  0.00    +0.002 C 
ATOM     71  C   UNL     1     151.010 169.735 191.499  0.00  0.00    -0.046 C 
ATOM     72  C   UNL     1     150.081 168.533 191.351  0.00  0.00    -0.026 C 
ATOM     73  C   UNL     1     149.238 168.340 192.609  0.00  0.00    +0.062 C 
ATOM     74  O   UNL     1     148.423 169.477 192.921  0.00  0.00    -0.345 OA
ATOM     75  H   UNL     1     146.476 170.941 191.744  0.00  0.00    +0.060 HD
ATOM     76  H   UNL     1     147.524 173.705 190.917  0.00  0.00    +0.032 HD
ATOM     77  H   UNL     1     147.801 173.868 193.620  0.00  0.00    +0.027 HD
ATOM     78  H   UNL     1     149.110 173.529 192.499  0.00  0.00    +0.027 HD
ATOM     79  H   UNL     1     147.437 171.438 193.957  0.00  0.00    +0.032 HD
ATOM     80  H   UNL     1     149.072 171.886 194.385  0.00  0.00    +0.032 HD
ATOM     81  H   UNL     1     150.845 170.545 193.477  0.00  0.00    +0.032 HD
ATOM     82  H   UNL     1     150.840 171.760 192.198  0.00  0.00    +0.032 HD
ATOM     83  H   UNL     1     151.171 170.190 190.517  0.00  0.00    +0.027 HD
ATOM     84  H   UNL     1     151.996 169.409 191.849  0.00  0.00    +0.027 HD
ATOM     85  H   UNL     1     149.434 168.714 190.485  0.00  0.00    +0.029 HD
ATOM     86  H   UNL     1     150.670 167.637 191.127  0.00  0.00    +0.029 HD
ATOM     87  H   UNL     1     149.913 168.193 193.460  0.00  0.00    +0.060 HD
BRANCH  65  88
ATOM     88  C   UNL     1     145.762 173.493 192.105  0.00  0.00    -0.060 C 
ATOM     89  H   UNL     1     145.290 172.763 192.769  0.00  0.00    +0.023 HD
ATOM     90  H   UNL     1     145.122 173.618 191.225  0.00  0.00    +0.023 HD
ATOM     91  H   UNL     1     145.804 174.446 192.637  0.00  0.00    +0.023 HD
ENDBRANCH  65  88
BRANCH  73  92
ATOM     92  C   UNL     1     148.332 167.097 192.537  0.00  0.00    -0.026 C 
ATOM     93  H   UNL     1     148.871 166.312 191.987  0.00  0.00    +0.029 HD
ATOM     94  H   UNL     1     147.426 167.347 191.972  0.00  0.00    +0.029 HD
BRANCH  92  95
ATOM     95  C   UNL     1     147.961 166.540 193.919  0.00  0.00    -0.045 C 
ATOM     96  H   UNL     1     148.347 167.202 194.702  0.00  0.00    +0.027 HD
ATOM     97  H   UNL     1     148.456 165.569 194.053  0.00  0.00    +0.027 HD
BRANCH  95  98
ATOM     98  C   UNL     1     146.443 166.344 194.121  0.00  0.00    -0.025 C 
ATOM     99  H   UNL     1     146.065 167.211 194.670  0.00  0.00    +0.034 HD
BRANCH  98 100
ATOM    100  C   UNL     1     146.118 165.091 194.931  0.00  0.00    -0.059 C 
ATOM    101  H   UNL     1     145.919 165.333 195.982  0.00  0.00    +0.024 HD
ATOM    102  H   UNL     1     146.952 164.377 194.897  0.00  0.00    +0.024 HD
ATOM    103  H   UNL     1     145.238 164.581 194.528  0.00  0.00    +0.024 HD
ENDBRANCH  98 100
BRANCH  98 104
ATOM    104  C   UNL     1     145.794 166.246 192.755  0.00  0.00    -0.080 C 
ATOM    105  C   UNL     1     144.517 166.522 192.409  0.00  0.00    -0.048 C 
ATOM    106  H   UNL     1     146.488 165.948 191.968  0.00  0.00    +0.058 HD
BRANCH 105 107
ATOM    107  C   UNL     1     143.448 166.919 193.394  0.00  0.00    -0.041 C 
ATOM    108  H   UNL     1     143.726 166.607 194.407  0.00  0.00    +0.028 HD
ATOM    109  H   UNL     1     142.470 166.485 193.170  0.00  0.00    +0.028 HD
ATOM    110  H   UNL     1     143.299 168.003 193.399  0.00  0.00    +0.028 HD
ENDBRANCH 105 107
BRANCH 105 111
ATOM    111  C   UNL     1     144.089 166.464 190.957  0.00  0.00    +0.073 C 
ATOM    112  H   UNL     1     143.848 167.469 190.592  0.00  0.00    +0.064 HD
BRANCH 111 113
ATOM    113  C   UNL     1     142.874 165.570 190.746  0.00  0.00    -0.035 C 
ATOM    114  H   UNL     1     142.828 164.770 191.495  0.00  0.00    +0.026 HD
ATOM    115  H   UNL     1     141.940 166.138 190.787  0.00  0.00    +0.026 HD
ATOM    116  H   UNL     1     142.930 165.073 189.770  0.00  0.00    +0.026 HD
ENDBRANCH 111 113
BRANCH 111 117
ATOM    117  O   UNL     1     145.182 165.994 190.174  0.00  0.00    -0.388 OA
ATOM    118  H   UNL     1     144.903 165.162 189.760  0.00  0.00    +0.210 HD
ENDBRANCH 111 117
ENDBRANCH 105 111
ENDBRANCH  98 104
ENDBRANCH  95  98
ENDBRANCH  92  95
ENDBRANCH  73  92
ENDBRANCH  61  64
ENDBRANCH   1  61
TORSDOF 27
ENDMDL
MODEL 8
REMARK VINA RESULT:      -6.0      2.751      8.075
REMARK  Name = Bistramide A_conf2
REMARK  27 active torsions:
REMARK  status: ('A' for Active; 'I' for Inactive)
REMARK    1  A    between atoms: C_1  and  C_2
REMARK    2  A    between atoms: C_3  and  C_4
REMARK    3  A    between atoms: C_4  and  C_6
REMARK    4  A    between atoms: C_6  and  C_7
REMARK    5  A    between atoms: C_10  and  C_50
REMARK    6  A    between atoms: C_11  and  C_13
REMARK    7  A    between atoms: C_13  and  C_14
REMARK    8  A    between atoms: N_16  and  C_17
REMARK    9  A    between atoms: C_17  and  C_18
REMARK   10  A    between atoms: C_18  and  C_19
REMARK   11  A    between atoms: C_18  and  O_49
REMARK   12  A    between atoms: C_19  and  C_20
REMARK   13  A    between atoms: C_19  and  C_21
REMARK   14  A    between atoms: N_23  and  C_24
REMARK   15  A    between atoms: C_24  and  C_25
REMARK   16  A    between atoms: C_25  and  C_26
REMARK   17  A    between atoms: C_26  and  C_27
REMARK   18  A    between atoms: C_28  and  C_48
REMARK   19  A    between atoms: C_36  and  C_38
REMARK   20  A    between atoms: C_38  and  C_39
REMARK   21  A    between atoms: C_39  and  C_40
REMARK   22  A    between atoms: C_40  and  C_41
REMARK   23  A    between atoms: C_40  and  C_42
REMARK   24  A    between atoms: C_43  and  C_44
REMARK   25  A    between atoms: C_43  and  C_45
REMARK   26  A    between atoms: C_45  and  C_46
REMARK   27  A    between atoms: C_45  and  O_47
REMARK                            x       y       z     vdW  Elec       q    Type
REMARK                         _______ _______ _______ _____ _____    ______ ____
ROOT
ATOM      1  C   UNL     1     148.011 168.368 190.115  0.00  0.00    -0.035 C 
ATOM      2  H   UNL     1     148.284 167.424 189.634  0.00  0.00    +0.028 HD
ATOM      3  H   UNL     1     148.562 169.161 189.591  0.00  0.00    +0.028 HD
ENDROOT
BRANCH   1   4
ATOM      4  C   UNL     1     148.456 168.347 191.571  0.00  0.00    +0.012 C 
ATOM      5  H   UNL     1     147.934 167.550 192.120  0.00  0.00    +0.046 HD
ATOM      6  H   UNL     1     149.532 168.161 191.644  0.00  0.00    +0.046 HD
BRANCH   4   9
ATOM      7  C   UNL     1     148.980 170.681 192.204  0.00  0.00    +0.218 C 
ATOM      8  O   UNL     1     150.118 170.631 191.745  0.00  0.00    -0.275 OA
ATOM      9  N   UNL     1     148.127 169.599 192.222  0.00  0.00    -0.315 N 
ATOM     10  H   UNL     1     147.206 169.703 192.627  0.00  0.00    +0.149 HD
BRANCH   7  11
ATOM     11  C   UNL     1     148.414 171.924 192.893  0.00  0.00    +0.060 C 
ATOM     12  H   UNL     1     147.662 171.593 193.625  0.00  0.00    +0.042 HD
BRANCH  11  13
ATOM     13  C   UNL     1     149.574 172.582 193.645  0.00  0.00    -0.052 C 
ATOM     14  H   UNL     1     149.355 173.635 193.864  0.00  0.00    +0.024 HD
ATOM     15  H   UNL     1     149.759 172.084 194.603  0.00  0.00    +0.024 HD
ATOM     16  H   UNL     1     150.501 172.534 193.069  0.00  0.00    +0.024 HD
ENDBRANCH  11  13
BRANCH  11  17
ATOM     17  C   UNL     1     147.731 172.821 191.842  0.00  0.00    +0.081 C 
ATOM     18  H   UNL     1     148.239 173.791 191.750  0.00  0.00    +0.062 HD
BRANCH  17  19
ATOM     19  C   UNL     1     146.236 173.088 192.090  0.00  0.00    +0.038 C 
ATOM     20  H   UNL     1     146.015 173.064 193.164  0.00  0.00    +0.049 HD
ATOM     21  H   UNL     1     145.935 174.061 191.688  0.00  0.00    +0.049 HD
BRANCH  19  24
ATOM     22  C   UNL     1     144.077 172.284 191.115  0.00  0.00    +0.216 C 
ATOM     23  O   UNL     1     143.441 173.260 191.503  0.00  0.00    -0.276 OA
ATOM     24  N   UNL     1     145.413 172.099 191.395  0.00  0.00    -0.313 N 
ATOM     25  H   UNL     1     145.873 171.261 191.057  0.00  0.00    +0.149 HD
BRANCH  22  26
ATOM     26  C   UNL     1     143.466 171.144 190.333  0.00  0.00    +0.050 C 
ATOM     27  H   UNL     1     142.410 171.392 190.172  0.00  0.00    +0.038 HD
ATOM     28  H   UNL     1     143.463 170.228 190.934  0.00  0.00    +0.038 HD
BRANCH  26  33
ATOM     29  C   UNL     1     144.937 172.309 187.149  0.00  0.00    +0.066 C 
ATOM     30  C   UNL     1     145.242 170.962 186.507  0.00  0.00    -0.026 C 
ATOM     31  C   UNL     1     144.039 170.030 186.612  0.00  0.00    -0.046 C 
ATOM     32  C   UNL     1     143.263 170.196 187.930  0.00  0.00    -0.017 C 
ATOM     33  C   UNL     1     144.149 170.901 188.984  0.00  0.00    +0.070 C 
ATOM     34  O   UNL     1     144.628 172.185 188.541  0.00  0.00    -0.372 OA
ATOM     35  H   UNL     1     144.059 172.747 186.661  0.00  0.00    +0.060 HD
ATOM     36  H   UNL     1     145.525 171.082 185.456  0.00  0.00    +0.029 HD
ATOM     37  H   UNL     1     146.097 170.496 187.012  0.00  0.00    +0.029 HD
ATOM     38  H   UNL     1     143.381 170.189 185.750  0.00  0.00    +0.027 HD
ATOM     39  H   UNL     1     144.395 168.995 186.527  0.00  0.00    +0.027 HD
ATOM     40  H   UNL     1     143.015 169.187 188.285  0.00  0.00    +0.032 HD
ATOM     41  H   UNL     1     145.034 170.278 189.165  0.00  0.00    +0.060 HD
BRANCH  32  42
ATOM     42  C   UNL     1     141.924 170.907 187.689  0.00  0.00    -0.060 C 
ATOM     43  H   UNL     1     141.343 171.020 188.607  0.00  0.00    +0.023 HD
ATOM     44  H   UNL     1     141.315 170.357 186.971  0.00  0.00    +0.023 HD
ATOM     45  H   UNL     1     142.091 171.904 187.262  0.00  0.00    +0.023 HD
ENDBRANCH  32  42
BRANCH  29  46
ATOM     46  C   UNL     1     146.121 173.264 187.012  0.00  0.00    +0.036 C 
ATOM     47  H   UNL     1     146.897 172.854 186.358  0.00  0.00    +0.037 HD
ATOM     48  H   UNL     1     146.577 173.451 187.990  0.00  0.00    +0.037 HD
BRANCH  46  49
ATOM     49  C   UNL     1     145.671 174.570 186.391  0.00  0.00    +0.158 C 
ATOM     50  O   UNL     1     146.476 175.442 186.066  0.00  0.00    -0.293 OA
BRANCH  49  52
ATOM     51  C   UNL     1     143.551 175.743 186.865  0.00  0.00    -0.084 C 
ATOM     52  C   UNL     1     144.199 174.765 186.216  0.00  0.00    -0.023 C 
ATOM     53  H   UNL     1     144.102 176.412 187.526  0.00  0.00    +0.057 HD
ATOM     54  H   UNL     1     143.682 174.088 185.547  0.00  0.00    +0.065 HD
BRANCH  51  55
ATOM     55  C   UNL     1     142.082 175.977 186.758  0.00  0.00    -0.046 C 
ATOM     56  H   UNL     1     141.545 175.664 187.663  0.00  0.00    +0.027 HD
ATOM     57  H   UNL     1     141.665 175.427 185.903  0.00  0.00    +0.027 HD
ATOM     58  H   UNL     1     141.885 177.044 186.601  0.00  0.00    +0.027 HD
ENDBRANCH  51  55
ENDBRANCH  49  52
ENDBRANCH  46  49
ENDBRANCH  29  46
ENDBRANCH  26  33
ENDBRANCH  22  26
ENDBRANCH  19  24
ENDBRANCH  17  19
BRANCH  17  59
ATOM     59  O   UNL     1     147.874 172.163 190.570  0.00  0.00    -0.390 OA
ATOM     60  H   UNL     1     147.144 172.472 190.004  0.00  0.00    +0.210 HD
ENDBRANCH  17  59
ENDBRANCH  11  17
ENDBRANCH   7  11
ENDBRANCH   4   9
ENDBRANCH   1   4
BRANCH   1  61
ATOM     61  C   UNL     1     146.507 168.617 189.977  0.00  0.00    -0.025 C 
ATOM     62  H   UNL     1     146.174 169.201 190.846  0.00  0.00    +0.029 HD
ATOM     63  H   UNL     1     146.321 169.215 189.079  0.00  0.00    +0.029 HD
BRANCH  61  64
ATOM     64  C   UNL     1     145.715 167.298 189.906  0.00  0.00    +0.065 C 
ATOM     65  C   UNL     1     145.222 167.002 188.472  0.00  0.00    -0.017 C 
ATOM     66  C   UNL     1     144.002 166.062 188.483  0.00  0.00    -0.043 C 
ATOM     67  C   UNL     1     143.960 165.245 189.768  0.00  0.00    +0.002 C 
ATOM     68  C   UNL     1     143.924 166.158 191.014  0.00  0.00    +0.171 C 
ATOM     69  O   UNL     1     144.574 167.413 190.759  0.00  0.00    -0.345 OA
ATOM     70  C   UNL     1     142.473 166.472 191.412  0.00  0.00    +0.002 C 
ATOM     71  C   UNL     1     142.409 167.348 192.665  0.00  0.00    -0.046 C 
ATOM     72  C   UNL     1     143.607 167.125 193.584  0.00  0.00    -0.026 C 
ATOM     73  C   UNL     1     144.175 165.719 193.401  0.00  0.00    +0.062 C 
ATOM     74  O   UNL     1     144.608 165.457 192.059  0.00  0.00    -0.345 OA
ATOM     75  H   UNL     1     146.360 166.487 190.274  0.00  0.00    +0.060 HD
ATOM     76  H   UNL     1     144.891 167.938 188.001  0.00  0.00    +0.032 HD
ATOM     77  H   UNL     1     144.000 165.396 187.611  0.00  0.00    +0.027 HD
ATOM     78  H   UNL     1     143.086 166.664 188.413  0.00  0.00    +0.027 HD
ATOM     79  H   UNL     1     144.849 164.599 189.802  0.00  0.00    +0.032 HD
ATOM     80  H   UNL     1     143.102 164.556 189.760  0.00  0.00    +0.032 HD
ATOM     81  H   UNL     1     141.941 165.537 191.621  0.00  0.00    +0.032 HD
ATOM     82  H   UNL     1     141.936 166.976 190.601  0.00  0.00    +0.032 HD
ATOM     83  H   UNL     1     142.362 168.406 192.384  0.00  0.00    +0.027 HD
ATOM     84  H   UNL     1     141.476 167.135 193.199  0.00  0.00    +0.027 HD
ATOM     85  H   UNL     1     144.365 167.876 193.337  0.00  0.00    +0.029 HD
ATOM     86  H   UNL     1     143.311 167.300 194.625  0.00  0.00    +0.029 HD
ATOM     87  H   UNL     1     143.386 164.993 193.624  0.00  0.00    +0.060 HD
BRANCH  65  88
ATOM     88  C   UNL     1     146.350 166.431 187.599  0.00  0.00    -0.060 C 
ATOM     89  H   UNL     1     145.949 165.714 186.877  0.00  0.00    +0.023 HD
ATOM     90  H   UNL     1     147.096 165.916 188.213  0.00  0.00    +0.023 HD
ATOM     91  H   UNL     1     146.853 167.220 187.037  0.00  0.00    +0.023 HD
ENDBRANCH  65  88
BRANCH  73  92
ATOM     92  C   UNL     1     145.344 165.418 194.357  0.00  0.00    -0.026 C 
ATOM     93  H   UNL     1     145.394 164.329 194.504  0.00  0.00    +0.029 HD
ATOM     94  H   UNL     1     145.139 165.883 195.329  0.00  0.00    +0.029 HD
BRANCH  92  95
ATOM     95  C   UNL     1     146.702 165.887 193.817  0.00  0.00    -0.045 C 
ATOM     96  H   UNL     1     146.655 166.954 193.572  0.00  0.00    +0.027 HD
ATOM     97  H   UNL     1     146.913 165.355 192.880  0.00  0.00    +0.027 HD
BRANCH  95  98
ATOM     98  C   UNL     1     147.875 165.641 194.791  0.00  0.00    -0.025 C 
ATOM     99  H   UNL     1     147.886 164.575 195.037  0.00  0.00    +0.034 HD
BRANCH  98 100
ATOM    100  C   UNL     1     147.728 166.426 196.093  0.00  0.00    -0.059 C 
ATOM    101  H   UNL     1     147.311 165.803 196.892  0.00  0.00    +0.024 HD
ATOM    102  H   UNL     1     147.067 167.292 195.954  0.00  0.00    +0.024 HD
ATOM    103  H   UNL     1     148.696 166.808 196.431  0.00  0.00    +0.024 HD
ENDBRANCH  98 100
BRANCH  98 104
ATOM    104  C   UNL     1     149.159 166.048 194.097  0.00  0.00    -0.080 C 
ATOM    105  C   UNL     1     150.423 165.659 194.373  0.00  0.00    -0.048 C 
ATOM    106  H   UNL     1     148.998 166.710 193.246  0.00  0.00    +0.058 HD
BRANCH 105 107
ATOM    107  C   UNL     1     150.794 164.769 195.531  0.00  0.00    -0.041 C 
ATOM    108  H   UNL     1     150.114 164.935 196.374  0.00  0.00    +0.028 HD
ATOM    109  H   UNL     1     151.814 164.930 195.891  0.00  0.00    +0.028 HD
ATOM    110  H   UNL     1     150.740 163.714 195.250  0.00  0.00    +0.028 HD
ENDBRANCH 105 107
BRANCH 105 111
ATOM    111  C   UNL     1     151.569 166.100 193.485  0.00  0.00    +0.073 C 
ATOM    112  H   UNL     1     151.814 167.152 193.675  0.00  0.00    +0.064 HD
BRANCH 111 113
ATOM    113  C   UNL     1     151.251 165.941 192.004  0.00  0.00    -0.035 C 
ATOM    114  H   UNL     1     152.054 166.343 191.374  0.00  0.00    +0.026 HD
ATOM    115  H   UNL     1     151.090 164.893 191.734  0.00  0.00    +0.026 HD
ATOM    116  H   UNL     1     150.347 166.505 191.744  0.00  0.00    +0.026 HD
ENDBRANCH 111 113
BRANCH 111 117
ATOM    117  O   UNL     1     152.728 165.342 193.820  0.00  0.00    -0.388 OA
ATOM    118  H   UNL     1     152.456 164.673 194.468  0.00  0.00    +0.210 HD
ENDBRANCH 111 117
ENDBRANCH 105 111
ENDBRANCH  98 104
ENDBRANCH  95  98
ENDBRANCH  92  95
ENDBRANCH  73  92
ENDBRANCH  61  64
ENDBRANCH   1  61
TORSDOF 27
ENDMDL
MODEL 9
REMARK VINA RESULT:      -6.0      1.651      4.732
REMARK  Name = Bistramide A_conf2
REMARK  27 active torsions:
REMARK  status: ('A' for Active; 'I' for Inactive)
REMARK    1  A    between atoms: C_1  and  C_2
REMARK    2  A    between atoms: C_3  and  C_4
REMARK    3  A    between atoms: C_4  and  C_6
REMARK    4  A    between atoms: C_6  and  C_7
REMARK    5  A    between atoms: C_10  and  C_50
REMARK    6  A    between atoms: C_11  and  C_13
REMARK    7  A    between atoms: C_13  and  C_14
REMARK    8  A    between atoms: N_16  and  C_17
REMARK    9  A    between atoms: C_17  and  C_18
REMARK   10  A    between atoms: C_18  and  C_19
REMARK   11  A    between atoms: C_18  and  O_49
REMARK   12  A    between atoms: C_19  and  C_20
REMARK   13  A    between atoms: C_19  and  C_21
REMARK   14  A    between atoms: N_23  and  C_24
REMARK   15  A    between atoms: C_24  and  C_25
REMARK   16  A    between atoms: C_25  and  C_26
REMARK   17  A    between atoms: C_26  and  C_27
REMARK   18  A    between atoms: C_28  and  C_48
REMARK   19  A    between atoms: C_36  and  C_38
REMARK   20  A    between atoms: C_38  and  C_39
REMARK   21  A    between atoms: C_39  and  C_40
REMARK   22  A    between atoms: C_40  and  C_41
REMARK   23  A    between atoms: C_40  and  C_42
REMARK   24  A    between atoms: C_43  and  C_44
REMARK   25  A    between atoms: C_43  and  C_45
REMARK   26  A    between atoms: C_45  and  C_46
REMARK   27  A    between atoms: C_45  and  O_47
REMARK                            x       y       z     vdW  Elec       q    Type
REMARK                         _______ _______ _______ _____ _____    ______ ____
ROOT
ATOM      1  C   UNL     1     150.102 164.357 187.496  0.00  0.00    -0.035 C 
ATOM      2  H   UNL     1     149.414 164.080 186.691  0.00  0.00    +0.028 HD
ATOM      3  H   UNL     1     149.730 163.872 188.410  0.00  0.00    +0.028 HD
ENDROOT
BRANCH   1   4
ATOM      4  C   UNL     1     150.071 165.866 187.699  0.00  0.00    +0.012 C 
ATOM      5  H   UNL     1     150.981 166.201 188.216  0.00  0.00    +0.046 HD
ATOM      6  H   UNL     1     150.017 166.384 186.736  0.00  0.00    +0.046 HD
BRANCH   4   9
ATOM      7  C   UNL     1     147.810 166.825 188.001  0.00  0.00    +0.218 C 
ATOM      8  O   UNL     1     147.716 167.169 186.826  0.00  0.00    -0.275 OA
ATOM      9  N   UNL     1     148.945 166.246 188.527  0.00  0.00    -0.315 N 
ATOM     10  H   UNL     1     148.964 165.999 189.507  0.00  0.00    +0.149 HD
BRANCH   7  11
ATOM     11  C   UNL     1     146.715 167.088 189.036  0.00  0.00    +0.060 C 
ATOM     12  H   UNL     1     145.754 167.157 188.504  0.00  0.00    +0.042 HD
BRANCH  11  13
ATOM     13  C   UNL     1     146.677 165.869 189.961  0.00  0.00    -0.052 C 
ATOM     14  H   UNL     1     147.686 165.470 190.129  0.00  0.00    +0.024 HD
ATOM     15  H   UNL     1     146.266 166.128 190.943  0.00  0.00    +0.024 HD
ATOM     16  H   UNL     1     146.055 165.073 189.547  0.00  0.00    +0.024 HD
ENDBRANCH  11  13
BRANCH  11  17
ATOM     17  C   UNL     1     146.997 168.429 189.742  0.00  0.00    +0.081 C 
ATOM     18  H   UNL     1     147.050 168.306 190.832  0.00  0.00    +0.062 HD
BRANCH  17  19
ATOM     19  C   UNL     1     145.983 169.547 189.438  0.00  0.00    +0.038 C 
ATOM     20  H   UNL     1     146.459 170.531 189.523  0.00  0.00    +0.049 HD
ATOM     21  H   UNL     1     145.565 169.440 188.433  0.00  0.00    +0.049 HD
BRANCH  19  24
ATOM     22  C   UNL     1     143.678 168.797 190.059  0.00  0.00    +0.216 C 
ATOM     23  O   UNL     1     143.463 168.277 188.969  0.00  0.00    -0.276 OA
ATOM     24  N   UNL     1     144.844 169.471 190.353  0.00  0.00    -0.313 N 
ATOM     25  H   UNL     1     144.949 169.891 191.269  0.00  0.00    +0.149 HD
BRANCH  22  26
ATOM     26  C   UNL     1     142.678 168.812 191.192  0.00  0.00    +0.050 C 
ATOM     27  H   UNL     1     141.691 168.624 190.754  0.00  0.00    +0.038 HD
ATOM     28  H   UNL     1     142.617 169.813 191.634  0.00  0.00    +0.038 HD
BRANCH  26  33
ATOM     29  C   UNL     1     144.907 166.428 192.927  0.00  0.00    +0.066 C 
ATOM     30  C   UNL     1     143.913 165.829 193.913  0.00  0.00    -0.026 C 
ATOM     31  C   UNL     1     142.618 165.440 193.204  0.00  0.00    -0.046 C 
ATOM     32  C   UNL     1     142.230 166.420 192.083  0.00  0.00    -0.017 C 
ATOM     33  C   UNL     1     142.969 167.765 192.272  0.00  0.00    +0.070 C 
ATOM     34  O   UNL     1     144.401 167.615 192.306  0.00  0.00    -0.372 OA
ATOM     35  H   UNL     1     145.101 165.704 192.128  0.00  0.00    +0.060 HD
ATOM     36  H   UNL     1     144.336 164.951 194.413  0.00  0.00    +0.029 HD
ATOM     37  H   UNL     1     143.683 166.559 194.698  0.00  0.00    +0.029 HD
ATOM     38  H   UNL     1     142.710 164.420 192.815  0.00  0.00    +0.027 HD
ATOM     39  H   UNL     1     141.815 165.404 193.950  0.00  0.00    +0.027 HD
ATOM     40  H   UNL     1     141.148 166.589 192.166  0.00  0.00    +0.032 HD
ATOM     41  H   UNL     1     142.672 168.191 193.238  0.00  0.00    +0.060 HD
BRANCH  32  42
ATOM     42  C   UNL     1     142.461 165.789 190.703  0.00  0.00    -0.060 C 
ATOM     43  H   UNL     1     143.374 165.190 190.667  0.00  0.00    +0.023 HD
ATOM     44  H   UNL     1     142.532 166.556 189.932  0.00  0.00    +0.023 HD
ATOM     45  H   UNL     1     141.616 165.146 190.429  0.00  0.00    +0.023 HD
ENDBRANCH  32  42
BRANCH  29  46
ATOM     46  C   UNL     1     146.222 166.781 193.618  0.00  0.00    +0.036 C 
ATOM     47  H   UNL     1     146.054 167.360 194.532  0.00  0.00    +0.037 HD
ATOM     48  H   UNL     1     146.853 167.382 192.956  0.00  0.00    +0.037 HD
BRANCH  46  49
ATOM     49  C   UNL     1     146.953 165.520 194.028  0.00  0.00    +0.158 C 
ATOM     50  O   UNL     1     146.392 164.624 194.659  0.00  0.00    -0.293 OA
BRANCH  49  52
ATOM     51  C   UNL     1     149.358 165.530 194.585  0.00  0.00    -0.084 C 
ATOM     52  C   UNL     1     148.397 165.422 193.656  0.00  0.00    -0.023 C 
ATOM     53  H   UNL     1     149.087 165.685 195.629  0.00  0.00    +0.057 HD
ATOM     54  H   UNL     1     148.633 165.261 192.610  0.00  0.00    +0.065 HD
BRANCH  51  55
ATOM     55  C   UNL     1     150.816 165.469 194.280  0.00  0.00    -0.046 C 
ATOM     56  H   UNL     1     151.293 166.456 194.335  0.00  0.00    +0.027 HD
ATOM     57  H   UNL     1     150.983 165.063 193.273  0.00  0.00    +0.027 HD
ATOM     58  H   UNL     1     151.320 164.810 194.997  0.00  0.00    +0.027 HD
ENDBRANCH  51  55
ENDBRANCH  49  52
ENDBRANCH  46  49
ENDBRANCH  29  46
ENDBRANCH  26  33
ENDBRANCH  22  26
ENDBRANCH  19  24
ENDBRANCH  17  19
BRANCH  17  59
ATOM     59  O   UNL     1     148.301 168.865 189.315  0.00  0.00    -0.390 OA
ATOM     60  H   UNL     1     148.166 169.535 188.623  0.00  0.00    +0.210 HD
ENDBRANCH  17  59
ENDBRANCH  11  17
ENDBRANCH   7  11
ENDBRANCH   4   9
ENDBRANCH   1   4
BRANCH   1  61
ATOM     61  C   UNL     1     151.511 163.848 187.187  0.00  0.00    -0.025 C 
ATOM     62  H   UNL     1     151.780 163.098 187.943  0.00  0.00    +0.029 HD
ATOM     63  H   UNL     1     151.510 163.353 186.209  0.00  0.00    +0.029 HD
BRANCH  61  64
ATOM     64  C   UNL     1     152.545 164.988 187.198  0.00  0.00    +0.065 C 
ATOM     65  C   UNL     1     153.639 164.783 186.126  0.00  0.00    -0.017 C 
ATOM     66  C   UNL     1     154.928 165.544 186.488  0.00  0.00    -0.043 C 
ATOM     67  C   UNL     1     154.627 166.700 187.433  0.00  0.00    +0.002 C 
ATOM     68  C   UNL     1     153.934 166.206 188.723  0.00  0.00    +0.171 C 
ATOM     69  O   UNL     1     153.174 165.012 188.482  0.00  0.00    -0.345 OA
ATOM     70  C   UNL     1     154.976 165.871 189.801  0.00  0.00    +0.002 C 
ATOM     71  C   UNL     1     154.313 165.411 191.102  0.00  0.00    -0.046 C 
ATOM     72  C   UNL     1     152.932 166.031 191.293  0.00  0.00    -0.026 C 
ATOM     73  C   UNL     1     152.833 167.369 190.564  0.00  0.00    +0.062 C 
ATOM     74  O   UNL     1     153.064 167.260 189.153  0.00  0.00    -0.345 OA
ATOM     75  H   UNL     1     152.014 165.938 187.039  0.00  0.00    +0.060 HD
ATOM     76  H   UNL     1     153.906 163.718 186.080  0.00  0.00    +0.032 HD
ATOM     77  H   UNL     1     155.443 165.912 185.592  0.00  0.00    +0.027 HD
ATOM     78  H   UNL     1     155.624 164.852 186.982  0.00  0.00    +0.027 HD
ATOM     79  H   UNL     1     153.979 167.419 186.911  0.00  0.00    +0.032 HD
ATOM     80  H   UNL     1     155.546 167.256 187.669  0.00  0.00    +0.032 HD
ATOM     81  H   UNL     1     155.577 166.761 190.019  0.00  0.00    +0.032 HD
ATOM     82  H   UNL     1     155.666 165.090 189.462  0.00  0.00    +0.032 HD
ATOM     83  H   UNL     1     154.224 164.320 191.116  0.00  0.00    +0.027 HD
ATOM     84  H   UNL     1     154.965 165.673 191.943  0.00  0.00    +0.027 HD
ATOM     85  H   UNL     1     152.191 165.328 190.898  0.00  0.00    +0.029 HD
ATOM     86  H   UNL     1     152.724 166.146 192.363  0.00  0.00    +0.029 HD
ATOM     87  H   UNL     1     153.605 168.038 190.959  0.00  0.00    +0.060 HD
BRANCH  65  88
ATOM     88  C   UNL     1     153.136 165.184 184.731  0.00  0.00    -0.060 C 
ATOM     89  H   UNL     1     153.808 164.800 183.957  0.00  0.00    +0.023 HD
ATOM     90  H   UNL     1     153.088 166.274 184.631  0.00  0.00    +0.023 HD
ATOM     91  H   UNL     1     152.141 164.778 184.536  0.00  0.00    +0.023 HD
ENDBRANCH  65  88
BRANCH  73  92
ATOM     92  C   UNL     1     151.479 168.071 190.783  0.00  0.00    -0.026 C 
ATOM     93  H   UNL     1     150.844 167.407 191.388  0.00  0.00    +0.029 HD
ATOM     94  H   UNL     1     150.991 168.216 189.812  0.00  0.00    +0.029 HD
BRANCH  92  95
ATOM     95  C   UNL     1     151.607 169.410 191.522  0.00  0.00    -0.045 C 
ATOM     96  H   UNL     1     151.792 170.215 190.803  0.00  0.00    +0.027 HD
ATOM     97  H   UNL     1     152.483 169.367 192.183  0.00  0.00    +0.027 HD
BRANCH  95  98
ATOM     98  C   UNL     1     150.370 169.766 192.376  0.00  0.00    -0.025 C 
ATOM     99  H   UNL     1     150.725 170.079 193.362  0.00  0.00    +0.034 HD
BRANCH  98 100
ATOM    100  C   UNL     1     149.429 168.578 192.566  0.00  0.00    -0.059 C 
ATOM    101  H   UNL     1     148.704 168.765 193.367  0.00  0.00    +0.024 HD
ATOM    102  H   UNL     1     149.993 167.670 192.820  0.00  0.00    +0.024 HD
ATOM    103  H   UNL     1     148.874 168.368 191.647  0.00  0.00    +0.024 HD
ENDBRANCH  98 100
BRANCH  98 104
ATOM    104  C   UNL     1     149.629 170.894 191.686  0.00  0.00    -0.080 C 
ATOM    105  C   UNL     1     149.262 172.091 192.193  0.00  0.00    -0.048 C 
ATOM    106  H   UNL     1     149.416 170.691 190.636  0.00  0.00    +0.058 HD
BRANCH 105 107
ATOM    107  C   UNL     1     149.469 172.495 193.630  0.00  0.00    -0.041 C 
ATOM    108  H   UNL     1     149.786 171.633 194.227  0.00  0.00    +0.028 HD
ATOM    109  H   UNL     1     148.572 172.911 194.097  0.00  0.00    +0.028 HD
ATOM    110  H   UNL     1     150.236 173.270 193.714  0.00  0.00    +0.028 HD
ENDBRANCH 105 107
BRANCH 105 111
ATOM    111  C   UNL     1     148.617 173.133 191.301  0.00  0.00    +0.073 C 
ATOM    112  H   UNL     1     148.341 174.017 191.888  0.00  0.00    +0.064 HD
BRANCH 111 113
ATOM    113  C   UNL     1     147.368 172.608 190.604  0.00  0.00    -0.035 C 
ATOM    114  H   UNL     1     146.761 173.426 190.198  0.00  0.00    +0.026 HD
ATOM    115  H   UNL     1     147.615 171.921 189.790  0.00  0.00    +0.026 HD
ATOM    116  H   UNL     1     146.727 172.077 191.319  0.00  0.00    +0.026 HD
ENDBRANCH 111 113
BRANCH 111 117
ATOM    117  O   UNL     1     149.570 173.563 190.334  0.00  0.00    -0.388 OA
ATOM    118  H   UNL     1     149.625 172.871 189.656  0.00  0.00    +0.210 HD
ENDBRANCH 111 117
ENDBRANCH 105 111
ENDBRANCH  98 104
ENDBRANCH  95  98
ENDBRANCH  92  95
ENDBRANCH  73  92
ENDBRANCH  61  64
ENDBRANCH   1  61
TORSDOF 27
ENDMDL
MODEL 10
REMARK VINA RESULT:      -6.0      2.396      8.264
REMARK  Name = Bistramide A_conf2
REMARK  27 active torsions:
REMARK  status: ('A' for Active; 'I' for Inactive)
REMARK    1  A    between atoms: C_1  and  C_2
REMARK    2  A    between atoms: C_3  and  C_4
REMARK    3  A    between atoms: C_4  and  C_6
REMARK    4  A    between atoms: C_6  and  C_7
REMARK    5  A    between atoms: C_10  and  C_50
REMARK    6  A    between atoms: C_11  and  C_13
REMARK    7  A    between atoms: C_13  and  C_14
REMARK    8  A    between atoms: N_16  and  C_17
REMARK    9  A    between atoms: C_17  and  C_18
REMARK   10  A    between atoms: C_18  and  C_19
REMARK   11  A    between atoms: C_18  and  O_49
REMARK   12  A    between atoms: C_19  and  C_20
REMARK   13  A    between atoms: C_19  and  C_21
REMARK   14  A    between atoms: N_23  and  C_24
REMARK   15  A    between atoms: C_24  and  C_25
REMARK   16  A    between atoms: C_25  and  C_26
REMARK   17  A    between atoms: C_26  and  C_27
REMARK   18  A    between atoms: C_28  and  C_48
REMARK   19  A    between atoms: C_36  and  C_38
REMARK   20  A    between atoms: C_38  and  C_39
REMARK   21  A    between atoms: C_39  and  C_40
REMARK   22  A    between atoms: C_40  and  C_41
REMARK   23  A    between atoms: C_40  and  C_42
REMARK   24  A    between atoms: C_43  and  C_44
REMARK   25  A    between atoms: C_43  and  C_45
REMARK   26  A    between atoms: C_45  and  C_46
REMARK   27  A    between atoms: C_45  and  O_47
REMARK                            x       y       z     vdW  Elec       q    Type
REMARK                         _______ _______ _______ _____ _____    ______ ____
ROOT
ATOM      1  C   UNL     1     146.616 165.836 189.698  0.00  0.00    -0.035 C 
ATOM      2  H   UNL     1     145.621 165.383 189.653  0.00  0.00    +0.028 HD
ATOM      3  H   UNL     1     146.519 166.853 189.295  0.00  0.00    +0.028 HD
ENDROOT
BRANCH   1   4
ATOM      4  C   UNL     1     147.576 165.052 188.814  0.00  0.00    +0.012 C 
ATOM      5  H   UNL     1     148.207 164.391 189.425  0.00  0.00    +0.046 HD
ATOM      6  H   UNL     1     147.024 164.430 188.101  0.00  0.00    +0.046 HD
BRANCH   4   9
ATOM      7  C   UNL     1     149.196 165.542 187.009  0.00  0.00    +0.218 C 
ATOM      8  O   UNL     1     149.247 164.375 186.632  0.00  0.00    -0.275 OA
ATOM      9  N   UNL     1     148.462 165.950 188.102  0.00  0.00    -0.315 N 
ATOM     10  H   UNL     1     148.474 166.925 188.369  0.00  0.00    +0.149 HD
BRANCH   7  11
ATOM     11  C   UNL     1     150.017 166.662 186.365  0.00  0.00    +0.060 C 
ATOM     12  H   UNL     1     150.331 166.321 185.367  0.00  0.00    +0.042 HD
BRANCH  11  13
ATOM     13  C   UNL     1     149.080 167.861 186.202  0.00  0.00    -0.052 C 
ATOM     14  H   UNL     1     148.747 167.962 185.161  0.00  0.00    +0.024 HD
ATOM     15  H   UNL     1     148.181 167.749 186.818  0.00  0.00    +0.024 HD
ATOM     16  H   UNL     1     149.567 168.792 186.502  0.00  0.00    +0.024 HD
ENDBRANCH  11  13
BRANCH  11  17
ATOM     17  C   UNL     1     151.270 166.928 187.223  0.00  0.00    +0.081 C 
ATOM     18  H   UNL     1     151.898 167.715 186.782  0.00  0.00    +0.062 HD
BRANCH  17  19
ATOM     19  C   UNL     1     152.157 165.696 187.474  0.00  0.00    +0.038 C 
ATOM     20  H   UNL     1     151.601 164.774 187.269  0.00  0.00    +0.049 HD
ATOM     21  H   UNL     1     153.053 165.718 186.846  0.00  0.00    +0.049 HD
BRANCH  19  24
ATOM     22  C   UNL     1     153.733 166.405 189.283  0.00  0.00    +0.216 C 
ATOM     23  O   UNL     1     154.447 167.053 188.524  0.00  0.00    -0.276 OA
ATOM     24  N   UNL     1     152.641 165.683 188.855  0.00  0.00    -0.313 N 
ATOM     25  H   UNL     1     152.104 165.157 189.535  0.00  0.00    +0.149 HD
BRANCH  22  26
ATOM     26  C   UNL     1     153.991 166.275 190.767  0.00  0.00    +0.050 C 
ATOM     27  H   UNL     1     154.589 167.143 191.068  0.00  0.00    +0.038 HD
ATOM     28  H   UNL     1     154.622 165.401 190.969  0.00  0.00    +0.038 HD
BRANCH  26  33
ATOM     29  C   UNL     1     150.918 167.784 192.159  0.00  0.00    +0.066 C 
ATOM     30  C   UNL     1     150.441 166.625 193.024  0.00  0.00    -0.026 C 
ATOM     31  C   UNL     1     151.588 166.072 193.865  0.00  0.00    -0.046 C 
ATOM     32  C   UNL     1     152.938 166.092 193.127  0.00  0.00    -0.017 C 
ATOM     33  C   UNL     1     152.710 166.217 191.603  0.00  0.00    +0.070 C 
ATOM     34  O   UNL     1     151.948 167.387 191.247  0.00  0.00    -0.372 OA
ATOM     35  H   UNL     1     151.341 168.562 192.804  0.00  0.00    +0.060 HD
ATOM     36  H   UNL     1     149.621 166.936 193.680  0.00  0.00    +0.029 HD
ATOM     37  H   UNL     1     150.049 165.823 192.387  0.00  0.00    +0.029 HD
ATOM     38  H   UNL     1     151.650 166.630 194.806  0.00  0.00    +0.027 HD
ATOM     39  H   UNL     1     151.343 165.040 194.147  0.00  0.00    +0.027 HD
ATOM     40  H   UNL     1     153.434 165.136 193.340  0.00  0.00    +0.032 HD
ATOM     41  H   UNL     1     152.131 165.348 191.267  0.00  0.00    +0.060 HD
BRANCH  32  42
ATOM     42  C   UNL     1     153.854 167.185 193.695  0.00  0.00    -0.060 C 
ATOM     43  H   UNL     1     154.580 167.542 192.961  0.00  0.00    +0.023 HD
ATOM     44  H   UNL     1     154.404 166.820 194.562  0.00  0.00    +0.023 HD
ATOM     45  H   UNL     1     153.261 168.043 194.037  0.00  0.00    +0.023 HD
ENDBRANCH  32  42
BRANCH  29  46
ATOM     46  C   UNL     1     149.769 168.372 191.344  0.00  0.00    +0.036 C 
ATOM     47  H   UNL     1     149.071 167.596 191.013  0.00  0.00    +0.037 HD
ATOM     48  H   UNL     1     150.151 168.877 190.452  0.00  0.00    +0.037 HD
BRANCH  46  49
ATOM     49  C   UNL     1     148.972 169.343 192.190  0.00  0.00    +0.158 C 
ATOM     50  O   UNL     1     147.948 168.998 192.779  0.00  0.00    -0.293 OA
BRANCH  49  52
ATOM     51  C   UNL     1     148.663 171.751 192.643  0.00  0.00    -0.084 C 
ATOM     52  C   UNL     1     149.469 170.751 192.256  0.00  0.00    -0.023 C 
ATOM     53  H   UNL     1     147.631 171.537 192.922  0.00  0.00    +0.057 HD
ATOM     54  H   UNL     1     150.501 170.929 191.978  0.00  0.00    +0.065 HD
BRANCH  51  55
ATOM     55  C   UNL     1     149.085 173.179 192.705  0.00  0.00    -0.046 C 
ATOM     56  H   UNL     1     148.467 173.823 192.065  0.00  0.00    +0.027 HD
ATOM     57  H   UNL     1     150.132 173.286 192.389  0.00  0.00    +0.027 HD
ATOM     58  H   UNL     1     149.004 173.548 193.734  0.00  0.00    +0.027 HD
ENDBRANCH  51  55
ENDBRANCH  49  52
ENDBRANCH  46  49
ENDBRANCH  29  46
ENDBRANCH  26  33
ENDBRANCH  22  26
ENDBRANCH  19  24
ENDBRANCH  17  19
BRANCH  17  59
ATOM     59  O   UNL     1     150.813 167.432 188.491  0.00  0.00    -0.390 OA
ATOM     60  H   UNL     1     150.139 166.811 188.819  0.00  0.00    +0.210 HD
ENDBRANCH  17  59
ENDBRANCH  11  17
ENDBRANCH   7  11
ENDBRANCH   4   9
ENDBRANCH   1   4
BRANCH   1  61
ATOM     61  C   UNL     1     147.099 165.906 191.149  0.00  0.00    -0.025 C 
ATOM     62  H   UNL     1     147.448 164.908 191.444  0.00  0.00    +0.029 HD
ATOM     63  H   UNL     1     147.952 166.592 191.212  0.00  0.00    +0.029 HD
BRANCH  61  64
ATOM     64  C   UNL     1     145.981 166.367 192.101  0.00  0.00    +0.065 C 
ATOM     65  C   UNL     1     145.945 165.525 193.395  0.00  0.00    -0.017 C 
ATOM     66  C   UNL     1     144.554 165.570 194.055  0.00  0.00    -0.043 C 
ATOM     67  C   UNL     1     143.792 166.817 193.626  0.00  0.00    +0.002 C 
ATOM     68  C   UNL     1     143.642 166.883 192.089  0.00  0.00    +0.171 C 
ATOM     69  O   UNL     1     144.727 166.213 191.430  0.00  0.00    -0.345 OA
ATOM     70  C   UNL     1     142.345 166.191 191.643  0.00  0.00    +0.002 C 
ATOM     71  C   UNL     1     142.155 166.271 190.127  0.00  0.00    -0.046 C 
ATOM     72  C   UNL     1     142.805 167.517 189.532  0.00  0.00    -0.026 C 
ATOM     73  C   UNL     1     142.884 168.635 190.570  0.00  0.00    +0.062 C 
ATOM     74  O   UNL     1     143.637 168.271 191.734  0.00  0.00    -0.345 OA
ATOM     75  H   UNL     1     146.138 167.431 192.330  0.00  0.00    +0.060 HD
ATOM     76  H   UNL     1     146.140 164.472 193.149  0.00  0.00    +0.032 HD
ATOM     77  H   UNL     1     144.627 165.529 195.149  0.00  0.00    +0.027 HD
ATOM     78  H   UNL     1     143.985 164.681 193.750  0.00  0.00    +0.027 HD
ATOM     79  H   UNL     1     144.335 167.701 193.988  0.00  0.00    +0.032 HD
ATOM     80  H   UNL     1     142.810 166.859 194.119  0.00  0.00    +0.032 HD
ATOM     81  H   UNL     1     141.487 166.677 192.122  0.00  0.00    +0.032 HD
ATOM     82  H   UNL     1     142.329 165.137 191.944  0.00  0.00    +0.032 HD
ATOM     83  H   UNL     1     142.574 165.381 189.645  0.00  0.00    +0.027 HD
ATOM     84  H   UNL     1     141.082 166.261 189.903  0.00  0.00    +0.027 HD
ATOM     85  H   UNL     1     143.810 167.243 189.194  0.00  0.00    +0.029 HD
ATOM     86  H   UNL     1     142.246 167.838 188.646  0.00  0.00    +0.029 HD
ATOM     87  H   UNL     1     141.868 168.865 190.911  0.00  0.00    +0.060 HD
BRANCH  65  88
ATOM     88  C   UNL     1     147.037 165.968 194.381  0.00  0.00    -0.060 C 
ATOM     89  H   UNL     1     147.368 165.122 194.991  0.00  0.00    +0.023 HD
ATOM     90  H   UNL     1     146.663 166.749 195.053  0.00  0.00    +0.023 HD
ATOM     91  H   UNL     1     147.911 166.358 193.855  0.00  0.00    +0.023 HD
ENDBRANCH  65  88
BRANCH  73  92
ATOM     92  C   UNL     1     143.470 169.940 189.999  0.00  0.00    -0.026 C 
ATOM     93  H   UNL     1     143.016 170.784 190.540  0.00  0.00    +0.029 HD
ATOM     94  H   UNL     1     143.191 170.025 188.942  0.00  0.00    +0.029 HD
BRANCH  92  95
ATOM     95  C   UNL     1     144.994 170.038 190.158  0.00  0.00    -0.045 C 
ATOM     96  H   UNL     1     145.352 169.228 190.804  0.00  0.00    +0.027 HD
ATOM     97  H   UNL     1     145.236 170.980 190.667  0.00  0.00    +0.027 HD
BRANCH  95  98
ATOM     98  C   UNL     1     145.760 169.997 188.819  0.00  0.00    -0.025 C 
ATOM     99  H   UNL     1     145.194 169.365 188.130  0.00  0.00    +0.034 HD
BRANCH  98 100
ATOM    100  C   UNL     1     147.160 169.405 188.964  0.00  0.00    -0.059 C 
ATOM    101  H   UNL     1     147.929 170.100 188.608  0.00  0.00    +0.024 HD
ATOM    102  H   UNL     1     147.251 168.473 188.390  0.00  0.00    +0.024 HD
ATOM    103  H   UNL     1     147.377 169.164 190.009  0.00  0.00    +0.024 HD
ENDBRANCH  98 100
BRANCH  98 104
ATOM    104  C   UNL     1     145.863 171.414 188.290  0.00  0.00    -0.080 C 
ATOM    105  C   UNL     1     145.920 171.830 187.006  0.00  0.00    -0.048 C 
ATOM    106  H   UNL     1     145.845 172.170 189.076  0.00  0.00    +0.058 HD
BRANCH 105 107
ATOM    107  C   UNL     1     145.976 170.897 185.823  0.00  0.00    -0.041 C 
ATOM    108  H   UNL     1     145.796 171.448 184.893  0.00  0.00    +0.028 HD
ATOM    109  H   UNL     1     145.245 170.086 185.876  0.00  0.00    +0.028 HD
ATOM    110  H   UNL     1     146.955 170.413 185.750  0.00  0.00    +0.028 HD
ENDBRANCH 105 107
BRANCH 105 111
ATOM    111  C   UNL     1     145.911 173.310 186.681  0.00  0.00    +0.073 C 
ATOM    112  H   UNL     1     146.571 173.853 187.368  0.00  0.00    +0.064 HD
BRANCH 111 113
ATOM    113  C   UNL     1     144.517 173.916 186.772  0.00  0.00    -0.035 C 
ATOM    114  H   UNL     1     144.320 174.599 185.936  0.00  0.00    +0.026 HD
ATOM    115  H   UNL     1     143.740 173.147 186.782  0.00  0.00    +0.026 HD
ATOM    116  H   UNL     1     144.420 174.515 187.686  0.00  0.00    +0.026 HD
ENDBRANCH 111 113
BRANCH 111 117
ATOM    117  O   UNL     1     146.440 173.495 185.371  0.00  0.00    -0.388 OA
ATOM    118  H   UNL     1     147.382 173.264 185.406  0.00  0.00    +0.210 HD
ENDBRANCH 111 117
ENDBRANCH 105 111
ENDBRANCH  98 104
ENDBRANCH  95  98
ENDBRANCH  92  95
ENDBRANCH  73  92
ENDBRANCH  61  64
ENDBRANCH   1  61
TORSDOF 27
ENDMDL
