MODEL 1
REMARK VINA RESULT:      -7.2      0.000      0.000
REMARK  Name = Bistramide A_conf1
REMARK  27 active torsions:
REMARK  status: ('A' for Active; 'I' for Inactive)
REMARK    1  A    between atoms: C_1  and  C_2
REMARK    2  A    between atoms: C_3  and  C_4
REMARK    3  A    between atoms: C_4  and  C_6
REMARK    4  A    between atoms: C_6  and  C_7
REMARK    5  A    between atoms: C_10  and  C_50
REMARK    6  A    between atoms: C_11  and  C_13
REMARK    7  A    between atoms: C_13  and  C_14
REMARK    8  A    between atoms: N_16  and  C_17
REMARK    9  A    between atoms: C_17  and  C_18
REMARK   10  A    between atoms: C_18  and  C_19
REMARK   11  A    between atoms: C_18  and  O_49
REMARK   12  A    between atoms: C_19  and  C_20
REMARK   13  A    between atoms: C_19  and  C_21
REMARK   14  A    between atoms: N_23  and  C_24
REMARK   15  A    between atoms: C_24  and  C_25
REMARK   16  A    between atoms: C_25  and  C_26
REMARK   17  A    between atoms: C_26  and  C_27
REMARK   18  A    between atoms: C_28  and  C_48
REMARK   19  A    between atoms: C_36  and  C_38
REMARK   20  A    between atoms: C_38  and  C_39
REMARK   21  A    between atoms: C_39  and  C_40
REMARK   22  A    between atoms: C_40  and  C_41
REMARK   23  A    between atoms: C_40  and  C_42
REMARK   24  A    between atoms: C_43  and  C_44
REMARK   25  A    between atoms: C_43  and  C_45
REMARK   26  A    between atoms: C_45  and  C_46
REMARK   27  A    between atoms: C_45  and  O_47
REMARK                            x       y       z     vdW  Elec       q    Type
REMARK                         _______ _______ _______ _____ _____    ______ ____
ROOT
ATOM      1  C   UNL     1     148.845 167.137 190.454  0.00  0.00    -0.035 C 
ATOM      2  H   UNL     1     149.330 166.292 190.961  0.00  0.00    +0.028 HD
ATOM      3  H   UNL     1     148.912 166.923 189.381  0.00  0.00    +0.028 HD
ENDROOT
BRANCH   1   4
ATOM      4  C   UNL     1     149.607 168.412 190.807  0.00  0.00    +0.012 C 
ATOM      5  H   UNL     1     150.224 168.284 191.704  0.00  0.00    +0.046 HD
ATOM      6  H   UNL     1     150.289 168.689 189.992  0.00  0.00    +0.046 HD
BRANCH   4   9
ATOM      7  C   UNL     1     149.208 170.740 191.505  0.00  0.00    +0.218 C 
ATOM      8  O   UNL     1     150.402 171.031 191.510  0.00  0.00    -0.275 OA
ATOM      9  N   UNL     1     148.727 169.523 191.087  0.00  0.00    -0.315 N 
ATOM     10  H   UNL     1     147.727 169.357 191.203  0.00  0.00    +0.149 HD
BRANCH   7  11
ATOM     11  C   UNL     1     148.147 171.719 191.999  0.00  0.00    +0.060 C 
ATOM     12  H   UNL     1     147.226 171.132 192.123  0.00  0.00    +0.042 HD
BRANCH  11  13
ATOM     13  C   UNL     1     148.541 172.282 193.363  0.00  0.00    -0.052 C 
ATOM     14  H   UNL     1     149.528 171.943 193.685  0.00  0.00    +0.024 HD
ATOM     15  H   UNL     1     148.549 173.377 193.334  0.00  0.00    +0.024 HD
ATOM     16  H   UNL     1     147.825 171.971 194.130  0.00  0.00    +0.024 HD
ENDBRANCH  11  13
BRANCH  11  17
ATOM     17  C   UNL     1     147.862 172.820 190.954  0.00  0.00    +0.081 C 
ATOM     18  H   UNL     1     147.262 173.598 191.433  0.00  0.00    +0.062 HD
BRANCH  17  19
ATOM     19  C   UNL     1     147.123 172.272 189.712  0.00  0.00    +0.038 C 
ATOM     20  H   UNL     1     146.756 173.088 189.084  0.00  0.00    +0.049 HD
ATOM     21  H   UNL     1     147.792 171.641 189.115  0.00  0.00    +0.049 HD
BRANCH  19  24
ATOM     22  C   UNL     1     145.786 170.160 189.490  0.00  0.00    +0.216 C 
ATOM     23  O   UNL     1     146.504 169.676 188.621  0.00  0.00    -0.276 OA
ATOM     24  N   UNL     1     145.964 171.432 189.990  0.00  0.00    -0.313 N 
ATOM     25  H   UNL     1     145.330 171.747 190.713  0.00  0.00    +0.149 HD
BRANCH  22  26
ATOM     26  C   UNL     1     144.675 169.398 190.184  0.00  0.00    +0.050 C 
ATOM     27  H   UNL     1     144.564 168.466 189.611  0.00  0.00    +0.038 HD
ATOM     28  H   UNL     1     144.996 169.151 191.201  0.00  0.00    +0.038 HD
BRANCH  26  33
ATOM     29  C   UNL     1     142.286 171.987 191.421  0.00  0.00    +0.066 C 
ATOM     30  C   UNL     1     141.003 171.166 191.603  0.00  0.00    -0.026 C 
ATOM     31  C   UNL     1     140.861 170.071 190.548  0.00  0.00    -0.046 C 
ATOM     32  C   UNL     1     142.138 169.228 190.432  0.00  0.00    -0.017 C 
ATOM     33  C   UNL     1     143.348 170.167 190.209  0.00  0.00    +0.070 C 
ATOM     34  O   UNL     1     143.430 171.132 191.267  0.00  0.00    -0.372 OA
ATOM     35  H   UNL     1     142.464 172.529 192.357  0.00  0.00    +0.060 HD
ATOM     36  H   UNL     1     140.114 171.805 191.602  0.00  0.00    +0.029 HD
ATOM     37  H   UNL     1     141.037 170.689 192.592  0.00  0.00    +0.029 HD
ATOM     38  H   UNL     1     140.646 170.532 189.575  0.00  0.00    +0.027 HD
ATOM     39  H   UNL     1     139.997 169.436 190.787  0.00  0.00    +0.027 HD
ATOM     40  H   UNL     1     142.030 168.575 189.555  0.00  0.00    +0.032 HD
ATOM     41  H   UNL     1     143.197 170.695 189.258  0.00  0.00    +0.060 HD
BRANCH  32  42
ATOM     42  C   UNL     1     142.295 168.319 191.664  0.00  0.00    -0.060 C 
ATOM     43  H   UNL     1     143.345 168.068 191.858  0.00  0.00    +0.023 HD
ATOM     44  H   UNL     1     141.747 167.381 191.528  0.00  0.00    +0.023 HD
ATOM     45  H   UNL     1     141.888 168.808 192.557  0.00  0.00    +0.023 HD
ENDBRANCH  32  42
BRANCH  29  46
ATOM     46  C   UNL     1     142.200 173.016 190.285  0.00  0.00    +0.036 C 
ATOM     47  H   UNL     1     141.278 172.889 189.707  0.00  0.00    +0.037 HD
ATOM     48  H   UNL     1     143.035 172.868 189.583  0.00  0.00    +0.037 HD
BRANCH  46  49
ATOM     49  C   UNL     1     142.288 174.433 190.817  0.00  0.00    +0.158 C 
ATOM     50  O   UNL     1     142.234 175.416 190.083  0.00  0.00    -0.293 OA
BRANCH  49  52
ATOM     51  C   UNL     1     143.053 175.643 192.821  0.00  0.00    -0.084 C 
ATOM     52  C   UNL     1     142.414 174.587 192.297  0.00  0.00    -0.023 C 
ATOM     53  H   UNL     1     143.480 176.399 192.161  0.00  0.00    +0.057 HD
ATOM     54  H   UNL     1     141.978 173.813 192.916  0.00  0.00    +0.065 HD
BRANCH  51  55
ATOM     55  C   UNL     1     143.229 175.882 194.285  0.00  0.00    -0.046 C 
ATOM     56  H   UNL     1     142.302 176.279 194.711  0.00  0.00    +0.027 HD
ATOM     57  H   UNL     1     144.036 176.591 194.500  0.00  0.00    +0.027 HD
ATOM     58  H   UNL     1     143.461 174.940 194.790  0.00  0.00    +0.027 HD
ENDBRANCH  51  55
ENDBRANCH  49  52
ENDBRANCH  46  49
ENDBRANCH  29  46
ENDBRANCH  26  33
ENDBRANCH  22  26
ENDBRANCH  19  24
ENDBRANCH  17  19
BRANCH  17  59
ATOM     59  O   UNL     1     149.105 173.421 190.568  0.00  0.00    -0.390 OA
ATOM     60  H   UNL     1     149.198 174.231 191.120  0.00  0.00    +0.210 HD
ENDBRANCH  17  59
ENDBRANCH  11  17
ENDBRANCH   7  11
ENDBRANCH   4   9
ENDBRANCH   1   4
BRANCH   1  61
ATOM     61  C   UNL     1     147.373 167.207 190.883  0.00  0.00    -0.025 C 
ATOM     62  H   UNL     1     147.166 168.247 191.171  0.00  0.00    +0.029 HD
ATOM     63  H   UNL     1     146.737 166.973 190.023  0.00  0.00    +0.029 HD
BRANCH  61  64
ATOM     64  C   UNL     1     147.051 166.288 192.079  0.00  0.00    +0.065 C 
ATOM     65  C   UNL     1     145.550 166.342 192.450  0.00  0.00    -0.017 C 
ATOM     66  C   UNL     1     145.324 165.941 193.918  0.00  0.00    -0.043 C 
ATOM     67  C   UNL     1     146.477 165.080 194.422  0.00  0.00    +0.002 C 
ATOM     68  C   UNL     1     147.825 165.833 194.309  0.00  0.00    +0.171 C 
ATOM     69  O   UNL     1     147.820 166.741 193.198  0.00  0.00    -0.345 OA
ATOM     70  C   UNL     1     148.059 166.683 195.579  0.00  0.00    +0.002 C 
ATOM     71  C   UNL     1     148.752 165.887 196.665  0.00  0.00    -0.046 C 
ATOM     72  C   UNL     1     150.072 165.310 196.162  0.00  0.00    -0.026 C 
ATOM     73  C   UNL     1     150.134 165.120 194.640  0.00  0.00    +0.062 C 
ATOM     74  O   UNL     1     148.830 164.826 194.132  0.00  0.00    -0.345 OA
ATOM     75  H   UNL     1     147.346 165.261 191.840  0.00  0.00    +0.060 HD
ATOM     76  H   UNL     1     145.185 167.373 192.333  0.00  0.00    +0.032 HD
ATOM     77  H   UNL     1     145.258 166.851 194.530  0.00  0.00    +0.027 HD
ATOM     78  H   UNL     1     144.375 165.411 194.049  0.00  0.00    +0.027 HD
ATOM     79  H   UNL     1     146.513 164.153 193.836  0.00  0.00    +0.032 HD
ATOM     80  H   UNL     1     146.295 164.759 195.452  0.00  0.00    +0.032 HD
ATOM     81  H   UNL     1     147.113 167.092 195.953  0.00  0.00    +0.032 HD
ATOM     82  H   UNL     1     148.666 167.566 195.349  0.00  0.00    +0.032 HD
ATOM     83  H   UNL     1     148.103 165.068 196.993  0.00  0.00    +0.027 HD
ATOM     84  H   UNL     1     148.934 166.514 197.547  0.00  0.00    +0.027 HD
ATOM     85  H   UNL     1     150.204 164.330 196.643  0.00  0.00    +0.029 HD
ATOM     86  H   UNL     1     150.907 165.916 196.529  0.00  0.00    +0.029 HD
ATOM     87  H   UNL     1     150.727 164.215 194.464  0.00  0.00    +0.060 HD
BRANCH  65  88
ATOM     88  C   UNL     1     144.717 165.455 191.517  0.00  0.00    -0.060 C 
ATOM     89  H   UNL     1     143.935 166.034 191.012  0.00  0.00    +0.023 HD
ATOM     90  H   UNL     1     144.234 164.637 192.057  0.00  0.00    +0.023 HD
ATOM     91  H   UNL     1     145.351 165.006 190.742  0.00  0.00    +0.023 HD
ENDBRANCH  65  88
BRANCH  73  92
ATOM     92  C   UNL     1     150.821 166.242 193.841  0.00  0.00    -0.026 C 
ATOM     93  H   UNL     1     150.057 166.996 193.607  0.00  0.00    +0.029 HD
ATOM     94  H   UNL     1     151.561 166.757 194.455  0.00  0.00    +0.029 HD
BRANCH  92  95
ATOM     95  C   UNL     1     151.490 165.786 192.536  0.00  0.00    -0.045 C 
ATOM     96  H   UNL     1     151.262 164.730 192.355  0.00  0.00    +0.027 HD
ATOM     97  H   UNL     1     151.050 166.347 191.709  0.00  0.00    +0.027 HD
BRANCH  95  98
ATOM     98  C   UNL     1     153.025 165.949 192.563  0.00  0.00    -0.025 C 
ATOM     99  H   UNL     1     153.433 164.967 192.843  0.00  0.00    +0.034 HD
BRANCH  98 100
ATOM    100  C   UNL     1     153.522 166.943 193.613  0.00  0.00    -0.059 C 
ATOM    101  H   UNL     1     154.138 166.442 194.366  0.00  0.00    +0.024 HD
ATOM    102  H   UNL     1     152.694 167.433 194.128  0.00  0.00    +0.024 HD
ATOM    103  H   UNL     1     154.137 167.725 193.158  0.00  0.00    +0.024 HD
ENDBRANCH  98 100
BRANCH  98 104
ATOM    104  C   UNL     1     153.637 166.248 191.207  0.00  0.00    -0.080 C 
ATOM    105  C   UNL     1     154.086 165.417 190.239  0.00  0.00    -0.048 C 
ATOM    106  H   UNL     1     153.696 167.321 191.023  0.00  0.00    +0.058 HD
BRANCH 105 107
ATOM    107  C   UNL     1     153.949 163.919 190.309  0.00  0.00    -0.041 C 
ATOM    108  H   UNL     1     154.469 163.408 189.496  0.00  0.00    +0.028 HD
ATOM    109  H   UNL     1     154.387 163.533 191.236  0.00  0.00    +0.028 HD
ATOM    110  H   UNL     1     152.889 163.637 190.286  0.00  0.00    +0.028 HD
ENDBRANCH 105 107
BRANCH 105 111
ATOM    111  C   UNL     1     154.721 165.925 188.947  0.00  0.00    +0.073 C 
ATOM    112  H   UNL     1     154.360 165.319 188.110  0.00  0.00    +0.064 HD
BRANCH 111 113
ATOM    113  C   UNL     1     156.250 165.882 188.972  0.00  0.00    -0.035 C 
ATOM    114  H   UNL     1     156.661 166.883 189.140  0.00  0.00    +0.026 HD
ATOM    115  H   UNL     1     156.615 165.247 189.788  0.00  0.00    +0.026 HD
ATOM    116  H   UNL     1     156.655 165.501 188.029  0.00  0.00    +0.026 HD
ENDBRANCH 111 113
BRANCH 111 117
ATOM    117  O   UNL     1     154.337 167.274 188.674  0.00  0.00    -0.388 OA
ATOM    118  H   UNL     1     154.433 167.771 189.505  0.00  0.00    +0.210 HD
ENDBRANCH 111 117
ENDBRANCH 105 111
ENDBRANCH  98 104
ENDBRANCH  95  98
ENDBRANCH  92  95
ENDBRANCH  73  92
ENDBRANCH  61  64
ENDBRANCH   1  61
TORSDOF 27
ENDMDL
MODEL 2
REMARK VINA RESULT:      -7.0      1.602      3.016
REMARK  Name = Bistramide A_conf1
REMARK  27 active torsions:
REMARK  status: ('A' for Active; 'I' for Inactive)
REMARK    1  A    between atoms: C_1  and  C_2
REMARK    2  A    between atoms: C_3  and  C_4
REMARK    3  A    between atoms: C_4  and  C_6
REMARK    4  A    between atoms: C_6  and  C_7
REMARK    5  A    between atoms: C_10  and  C_50
REMARK    6  A    between atoms: C_11  and  C_13
REMARK    7  A    between atoms: C_13  and  C_14
REMARK    8  A    between atoms: N_16  and  C_17
REMARK    9  A    between atoms: C_17  and  C_18
REMARK   10  A    between atoms: C_18  and  C_19
REMARK   11  A    between atoms: C_18  and  O_49
REMARK   12  A    between atoms: C_19  and  C_20
REMARK   13  A    between atoms: C_19  and  C_21
REMARK   14  A    between atoms: N_23  and  C_24
REMARK   15  A    between atoms: C_24  and  C_25
REMARK   16  A    between atoms: C_25  and  C_26
REMARK   17  A    between atoms: C_26  and  C_27
REMARK   18  A    between atoms: C_28  and  C_48
REMARK   19  A    between atoms: C_36  and  C_38
REMARK   20  A    between atoms: C_38  and  C_39
REMARK   21  A    between atoms: C_39  and  C_40
REMARK   22  A    between atoms: C_40  and  C_41
REMARK   23  A    between atoms: C_40  and  C_42
REMARK   24  A    between atoms: C_43  and  C_44
REMARK   25  A    between atoms: C_43  and  C_45
REMARK   26  A    between atoms: C_45  and  C_46
REMARK   27  A    between atoms: C_45  and  O_47
REMARK                            x       y       z     vdW  Elec       q    Type
REMARK                         _______ _______ _______ _____ _____    ______ ____
ROOT
ATOM      1  C   UNL     1     147.906 167.944 190.922  0.00  0.00    -0.035 C 
ATOM      2  H   UNL     1     148.403 168.026 191.898  0.00  0.00    +0.028 HD
ATOM      3  H   UNL     1     148.474 167.198 190.356  0.00  0.00    +0.028 HD
ENDROOT
BRANCH   1   4
ATOM      4  C   UNL     1     147.959 169.309 190.240  0.00  0.00    +0.012 C 
ATOM      5  H   UNL     1     148.934 169.495 189.775  0.00  0.00    +0.046 HD
ATOM      6  H   UNL     1     147.210 169.366 189.438  0.00  0.00    +0.046 HD
BRANCH   4   9
ATOM      7  C   UNL     1     148.794 171.084 191.729  0.00  0.00    +0.218 C 
ATOM      8  O   UNL     1     149.962 170.947 191.375  0.00  0.00    -0.275 OA
ATOM      9  N   UNL     1     147.746 170.399 191.164  0.00  0.00    -0.315 N 
ATOM     10  H   UNL     1     146.827 170.526 191.590  0.00  0.00    +0.149 HD
BRANCH   7  11
ATOM     11  C   UNL     1     148.411 172.026 192.866  0.00  0.00    +0.060 C 
ATOM     12  H   UNL     1     147.603 171.525 193.417  0.00  0.00    +0.042 HD
BRANCH  11  13
ATOM     13  C   UNL     1     149.591 172.213 193.818  0.00  0.00    -0.052 C 
ATOM     14  H   UNL     1     149.276 172.521 194.818  0.00  0.00    +0.024 HD
ATOM     15  H   UNL     1     150.155 171.280 193.911  0.00  0.00    +0.024 HD
ATOM     16  H   UNL     1     150.272 172.983 193.441  0.00  0.00    +0.024 HD
ENDBRANCH  11  13
BRANCH  11  17
ATOM     17  C   UNL     1     147.853 173.364 192.331  0.00  0.00    +0.081 C 
ATOM     18  H   UNL     1     148.542 174.161 192.621  0.00  0.00    +0.062 HD
BRANCH  17  19
ATOM     19  C   UNL     1     146.437 173.665 192.872  0.00  0.00    +0.038 C 
ATOM     20  H   UNL     1     146.300 173.234 193.868  0.00  0.00    +0.049 HD
ATOM     21  H   UNL     1     146.272 174.747 192.931  0.00  0.00    +0.049 HD
BRANCH  19  24
ATOM     22  C   UNL     1     144.049 173.658 192.100  0.00  0.00    +0.216 C 
ATOM     23  O   UNL     1     143.668 174.465 192.943  0.00  0.00    -0.276 OA
ATOM     24  N   UNL     1     145.334 173.160 192.064  0.00  0.00    -0.313 N 
ATOM     25  H   UNL     1     145.565 172.505 191.327  0.00  0.00    +0.149 HD
BRANCH  22  26
ATOM     26  C   UNL     1     143.193 173.179 190.946  0.00  0.00    +0.050 C 
ATOM     27  H   UNL     1     142.161 173.202 191.324  0.00  0.00    +0.038 HD
ATOM     28  H   UNL     1     143.282 173.891 190.118  0.00  0.00    +0.038 HD
BRANCH  26  33
ATOM     29  C   UNL     1     143.560 170.427 188.449  0.00  0.00    +0.066 C 
ATOM     30  C   UNL     1     142.886 169.256 189.175  0.00  0.00    -0.026 C 
ATOM     31  C   UNL     1     143.117 169.298 190.684  0.00  0.00    -0.046 C 
ATOM     32  C   UNL     1     142.784 170.678 191.268  0.00  0.00    -0.017 C 
ATOM     33  C   UNL     1     143.556 171.764 190.480  0.00  0.00    +0.070 C 
ATOM     34  O   UNL     1     143.245 171.678 189.082  0.00  0.00    -0.372 OA
ATOM     35  H   UNL     1     143.111 170.496 187.451  0.00  0.00    +0.060 HD
ATOM     36  H   UNL     1     143.215 168.292 188.773  0.00  0.00    +0.029 HD
ATOM     37  H   UNL     1     141.805 169.312 188.991  0.00  0.00    +0.029 HD
ATOM     38  H   UNL     1     144.169 169.064 190.895  0.00  0.00    +0.027 HD
ATOM     39  H   UNL     1     142.522 168.515 191.172  0.00  0.00    +0.027 HD
ATOM     40  H   UNL     1     143.124 170.690 192.313  0.00  0.00    +0.032 HD
ATOM     41  H   UNL     1     144.630 171.583 190.616  0.00  0.00    +0.060 HD
BRANCH  32  42
ATOM     42  C   UNL     1     141.262 170.903 191.279  0.00  0.00    -0.060 C 
ATOM     43  H   UNL     1     140.711 169.987 191.035  0.00  0.00    +0.023 HD
ATOM     44  H   UNL     1     140.977 171.670 190.552  0.00  0.00    +0.023 HD
ATOM     45  H   UNL     1     140.931 171.249 192.266  0.00  0.00    +0.023 HD
ENDBRANCH  32  42
BRANCH  29  46
ATOM     46  C   UNL     1     145.075 170.253 188.277  0.00  0.00    +0.036 C 
ATOM     47  H   UNL     1     145.303 169.574 187.448  0.00  0.00    +0.037 HD
ATOM     48  H   UNL     1     145.504 169.800 189.184  0.00  0.00    +0.037 HD
BRANCH  46  49
ATOM     49  C   UNL     1     145.762 171.588 188.058  0.00  0.00    +0.158 C 
ATOM     50  O   UNL     1     146.379 172.164 188.948  0.00  0.00    -0.293 OA
BRANCH  49  52
ATOM     51  C   UNL     1     146.058 173.430 186.452  0.00  0.00    -0.084 C 
ATOM     52  C   UNL     1     145.680 172.165 186.683  0.00  0.00    -0.023 C 
ATOM     53  H   UNL     1     146.433 174.042 187.273  0.00  0.00    +0.057 HD
ATOM     54  H   UNL     1     145.299 171.526 185.897  0.00  0.00    +0.065 HD
BRANCH  51  55
ATOM     55  C   UNL     1     146.012 174.094 185.114  0.00  0.00    -0.046 C 
ATOM     56  H   UNL     1     146.837 174.809 185.025  0.00  0.00    +0.027 HD
ATOM     57  H   UNL     1     145.073 174.631 184.944  0.00  0.00    +0.027 HD
ATOM     58  H   UNL     1     146.123 173.345 184.324  0.00  0.00    +0.027 HD
ENDBRANCH  51  55
ENDBRANCH  49  52
ENDBRANCH  46  49
ENDBRANCH  29  46
ENDBRANCH  26  33
ENDBRANCH  22  26
ENDBRANCH  19  24
ENDBRANCH  17  19
BRANCH  17  59
ATOM     59  O   UNL     1     147.840 173.316 190.899  0.00  0.00    -0.390 OA
ATOM     60  H   UNL     1     147.728 174.247 190.597  0.00  0.00    +0.210 HD
ENDBRANCH  17  59
ENDBRANCH  11  17
ENDBRANCH   7  11
ENDBRANCH   4   9
ENDBRANCH   1   4
BRANCH   1  61
ATOM     61  C   UNL     1     146.465 167.458 191.128  0.00  0.00    -0.025 C 
ATOM     62  H   UNL     1     145.854 168.339 191.371  0.00  0.00    +0.029 HD
ATOM     63  H   UNL     1     146.085 167.048 190.187  0.00  0.00    +0.029 HD
BRANCH  61  64
ATOM     64  C   UNL     1     146.333 166.434 192.273  0.00  0.00    +0.065 C 
ATOM     65  C   UNL     1     144.885 166.368 192.815  0.00  0.00    -0.017 C 
ATOM     66  C   UNL     1     144.855 165.844 194.261  0.00  0.00    -0.043 C 
ATOM     67  C   UNL     1     146.102 165.019 194.558  0.00  0.00    +0.002 C 
ATOM     68  C   UNL     1     147.387 165.858 194.356  0.00  0.00    +0.171 C 
ATOM     69  O   UNL     1     147.205 166.846 193.331  0.00  0.00    -0.345 OA
ATOM     70  C   UNL     1     147.725 166.622 195.657  0.00  0.00    +0.002 C 
ATOM     71  C   UNL     1     148.581 165.789 196.588  0.00  0.00    -0.046 C 
ATOM     72  C   UNL     1     149.861 165.333 195.894  0.00  0.00    -0.026 C 
ATOM     73  C   UNL     1     149.753 165.264 194.364  0.00  0.00    +0.062 C 
ATOM     74  O   UNL     1     148.414 164.930 193.984  0.00  0.00    -0.345 OA
ATOM     75  H   UNL     1     146.651 165.447 191.919  0.00  0.00    +0.060 HD
ATOM     76  H   UNL     1     144.457 167.380 192.826  0.00  0.00    +0.032 HD
ATOM     77  H   UNL     1     144.814 166.699 194.950  0.00  0.00    +0.027 HD
ATOM     78  H   UNL     1     143.956 165.249 194.455  0.00  0.00    +0.027 HD
ATOM     79  H   UNL     1     146.117 164.143 193.898  0.00  0.00    +0.032 HD
ATOM     80  H   UNL     1     146.060 164.609 195.573  0.00  0.00    +0.032 HD
ATOM     81  H   UNL     1     146.810 166.944 196.169  0.00  0.00    +0.032 HD
ATOM     82  H   UNL     1     148.254 167.555 195.433  0.00  0.00    +0.032 HD
ATOM     83  H   UNL     1     148.017 164.910 196.920  0.00  0.00    +0.027 HD
ATOM     84  H   UNL     1     148.832 166.358 197.492  0.00  0.00    +0.027 HD
ATOM     85  H   UNL     1     150.098 164.329 196.273  0.00  0.00    +0.029 HD
ATOM     86  H   UNL     1     150.700 165.959 196.213  0.00  0.00    +0.029 HD
ATOM     87  H   UNL     1     150.366 164.412 194.048  0.00  0.00    +0.060 HD
BRANCH  65  88
ATOM     88  C   UNL     1     143.995 165.505 191.912  0.00  0.00    -0.060 C 
ATOM     89  H   UNL     1     143.313 166.125 191.319  0.00  0.00    +0.023 HD
ATOM     90  H   UNL     1     143.393 164.799 192.490  0.00  0.00    +0.023 HD
ATOM     91  H   UNL     1     144.605 164.919 191.214  0.00  0.00    +0.023 HD
ENDBRANCH  65  88
BRANCH  73  92
ATOM     92  C   UNL     1     150.281 166.483 193.587  0.00  0.00    -0.026 C 
ATOM     93  H   UNL     1     149.422 167.124 193.354  0.00  0.00    +0.029 HD
ATOM     94  H   UNL     1     150.936 167.087 194.216  0.00  0.00    +0.029 HD
BRANCH  92  95
ATOM     95  C   UNL     1     151.020 166.145 192.283  0.00  0.00    -0.045 C 
ATOM     96  H   UNL     1     150.567 165.260 191.823  0.00  0.00    +0.027 HD
ATOM     97  H   UNL     1     150.878 166.970 191.584  0.00  0.00    +0.027 HD
BRANCH  95  98
ATOM     98  C   UNL     1     152.521 165.856 192.506  0.00  0.00    -0.025 C 
ATOM     99  H   UNL     1     152.610 164.766 192.619  0.00  0.00    +0.034 HD
BRANCH  98 100
ATOM    100  C   UNL     1     153.086 166.475 193.783  0.00  0.00    -0.059 C 
ATOM    101  H   UNL     1     152.555 167.397 194.039  0.00  0.00    +0.024 HD
ATOM    102  H   UNL     1     154.146 166.715 193.680  0.00  0.00    +0.024 HD
ATOM    103  H   UNL     1     152.983 165.794 194.633  0.00  0.00    +0.024 HD
ENDBRANCH  98 100
BRANCH  98 104
ATOM    104  C   UNL     1     153.396 166.192 191.311  0.00  0.00    -0.080 C 
ATOM    105  C   UNL     1     153.913 165.399 190.346  0.00  0.00    -0.048 C 
ATOM    106  H   UNL     1     153.608 167.261 191.260  0.00  0.00    +0.058 HD
BRANCH 105 107
ATOM    107  C   UNL     1     153.597 163.933 190.225  0.00  0.00    -0.041 C 
ATOM    108  H   UNL     1     154.482 163.322 190.039  0.00  0.00    +0.028 HD
ATOM    109  H   UNL     1     153.160 163.553 191.155  0.00  0.00    +0.028 HD
ATOM    110  H   UNL     1     152.875 163.769 189.414  0.00  0.00    +0.028 HD
ENDBRANCH 105 107
BRANCH 105 111
ATOM    111  C   UNL     1     154.823 165.934 189.242  0.00  0.00    +0.073 C 
ATOM    112  H   UNL     1     154.792 165.246 188.390  0.00  0.00    +0.064 HD
BRANCH 111 113
ATOM    113  C   UNL     1     156.274 166.108 189.692  0.00  0.00    -0.035 C 
ATOM    114  H   UNL     1     156.676 167.062 189.334  0.00  0.00    +0.026 HD
ATOM    115  H   UNL     1     156.351 166.121 190.786  0.00  0.00    +0.026 HD
ATOM    116  H   UNL     1     156.911 165.304 189.309  0.00  0.00    +0.026 HD
ENDBRANCH 111 113
BRANCH 111 117
ATOM    117  O   UNL     1     154.370 167.202 188.762  0.00  0.00    -0.388 OA
ATOM    118  H   UNL     1     154.279 167.124 187.796  0.00  0.00    +0.210 HD
ENDBRANCH 111 117
ENDBRANCH 105 111
ENDBRANCH  98 104
ENDBRANCH  95  98
ENDBRANCH  92  95
ENDBRANCH  73  92
ENDBRANCH  61  64
ENDBRANCH   1  61
TORSDOF 27
ENDMDL
MODEL 3
REMARK VINA RESULT:      -6.9      2.842      9.162
REMARK  Name = Bistramide A_conf1
REMARK  27 active torsions:
REMARK  status: ('A' for Active; 'I' for Inactive)
REMARK    1  A    between atoms: C_1  and  C_2
REMARK    2  A    between atoms: C_3  and  C_4
REMARK    3  A    between atoms: C_4  and  C_6
REMARK    4  A    between atoms: C_6  and  C_7
REMARK    5  A    between atoms: C_10  and  C_50
REMARK    6  A    between atoms: C_11  and  C_13
REMARK    7  A    between atoms: C_13  and  C_14
REMARK    8  A    between atoms: N_16  and  C_17
REMARK    9  A    between atoms: C_17  and  C_18
REMARK   10  A    between atoms: C_18  and  C_19
REMARK   11  A    between atoms: C_18  and  O_49
REMARK   12  A    between atoms: C_19  and  C_20
REMARK   13  A    between atoms: C_19  and  C_21
REMARK   14  A    between atoms: N_23  and  C_24
REMARK   15  A    between atoms: C_24  and  C_25
REMARK   16  A    between atoms: C_25  and  C_26
REMARK   17  A    between atoms: C_26  and  C_27
REMARK   18  A    between atoms: C_28  and  C_48
REMARK   19  A    between atoms: C_36  and  C_38
REMARK   20  A    between atoms: C_38  and  C_39
REMARK   21  A    between atoms: C_39  and  C_40
REMARK   22  A    between atoms: C_40  and  C_41
REMARK   23  A    between atoms: C_40  and  C_42
REMARK   24  A    between atoms: C_43  and  C_44
REMARK   25  A    between atoms: C_43  and  C_45
REMARK   26  A    between atoms: C_45  and  C_46
REMARK   27  A    between atoms: C_45  and  O_47
REMARK                            x       y       z     vdW  Elec       q    Type
REMARK                         _______ _______ _______ _____ _____    ______ ____
ROOT
ATOM      1  C   UNL     1     145.970 168.234 190.255  0.00  0.00    -0.035 C 
ATOM      2  H   UNL     1     146.151 169.282 190.531  0.00  0.00    +0.028 HD
ATOM      3  H   UNL     1     146.861 167.681 190.573  0.00  0.00    +0.028 HD
ENDROOT
BRANCH   1   4
ATOM      4  C   UNL     1     145.789 168.160 188.742  0.00  0.00    +0.012 C 
ATOM      5  H   UNL     1     144.824 167.720 188.466  0.00  0.00    +0.046 HD
ATOM      6  H   UNL     1     145.815 169.167 188.303  0.00  0.00    +0.046 HD
BRANCH   4   9
ATOM      7  C   UNL     1     147.670 167.856 187.180  0.00  0.00    +0.218 C 
ATOM      8  O   UNL     1     147.785 169.058 186.955  0.00  0.00    -0.275 OA
ATOM      9  N   UNL     1     146.793 167.340 188.103  0.00  0.00    -0.315 N 
ATOM     10  H   UNL     1     146.719 166.322 188.151  0.00  0.00    +0.149 HD
BRANCH   7  11
ATOM     11  C   UNL     1     148.490 166.820 186.418  0.00  0.00    +0.060 C 
ATOM     12  H   UNL     1     148.097 165.839 186.720  0.00  0.00    +0.042 HD
BRANCH  11  13
ATOM     13  C   UNL     1     148.274 166.977 184.914  0.00  0.00    -0.052 C 
ATOM     14  H   UNL     1     148.647 167.931 184.536  0.00  0.00    +0.024 HD
ATOM     15  H   UNL     1     148.783 166.173 184.372  0.00  0.00    +0.024 HD
ATOM     16  H   UNL     1     147.208 166.926 184.670  0.00  0.00    +0.024 HD
ENDBRANCH  11  13
BRANCH  11  17
ATOM     17  C   UNL     1     149.981 166.870 186.819  0.00  0.00    +0.081 C 
ATOM     18  H   UNL     1     150.469 167.646 186.224  0.00  0.00    +0.062 HD
BRANCH  17  19
ATOM     19  C   UNL     1     150.691 165.514 186.603  0.00  0.00    +0.038 C 
ATOM     20  H   UNL     1     150.357 164.777 187.339  0.00  0.00    +0.049 HD
ATOM     21  H   UNL     1     150.482 165.127 185.598  0.00  0.00    +0.049 HD
BRANCH  19  24
ATOM     22  C   UNL     1     153.001 165.380 185.631  0.00  0.00    +0.216 C 
ATOM     23  O   UNL     1     152.623 165.024 184.520  0.00  0.00    -0.276 OA
ATOM     24  N   UNL     1     152.145 165.542 186.700  0.00  0.00    -0.313 N 
ATOM     25  H   UNL     1     152.542 165.849 187.579  0.00  0.00    +0.149 HD
BRANCH  22  26
ATOM     26  C   UNL     1     154.429 165.772 185.949  0.00  0.00    +0.050 C 
ATOM     27  H   UNL     1     155.024 165.401 185.102  0.00  0.00    +0.038 HD
ATOM     28  H   UNL     1     154.499 166.865 185.978  0.00  0.00    +0.038 HD
BRANCH  26  33
ATOM     29  C   UNL     1     155.038 165.696 189.632  0.00  0.00    +0.066 C 
ATOM     30  C   UNL     1     156.520 165.304 189.695  0.00  0.00    -0.026 C 
ATOM     31  C   UNL     1     156.913 164.339 188.578  0.00  0.00    -0.046 C 
ATOM     32  C   UNL     1     156.452 164.846 187.205  0.00  0.00    -0.017 C 
ATOM     33  C   UNL     1     154.938 165.164 187.261  0.00  0.00    +0.070 C 
ATOM     34  O   UNL     1     154.668 166.109 188.307  0.00  0.00    -0.372 OA
ATOM     35  H   UNL     1     154.909 166.591 190.252  0.00  0.00    +0.060 HD
ATOM     36  H   UNL     1     156.781 164.876 190.668  0.00  0.00    +0.029 HD
ATOM     37  H   UNL     1     157.122 166.216 189.589  0.00  0.00    +0.029 HD
ATOM     38  H   UNL     1     156.456 163.359 188.770  0.00  0.00    +0.027 HD
ATOM     39  H   UNL     1     158.000 164.182 188.590  0.00  0.00    +0.027 HD
ATOM     40  H   UNL     1     156.618 164.040 186.477  0.00  0.00    +0.032 HD
ATOM     41  H   UNL     1     154.404 164.231 187.480  0.00  0.00    +0.060 HD
BRANCH  32  42
ATOM     42  C   UNL     1     157.308 166.046 186.761  0.00  0.00    -0.060 C 
ATOM     43  H   UNL     1     156.987 166.978 187.241  0.00  0.00    +0.023 HD
ATOM     44  H   UNL     1     157.247 166.188 185.678  0.00  0.00    +0.023 HD
ATOM     45  H   UNL     1     158.363 165.879 187.009  0.00  0.00    +0.023 HD
ENDBRANCH  32  42
BRANCH  29  46
ATOM     46  C   UNL     1     154.093 164.609 190.163  0.00  0.00    +0.036 C 
ATOM     47  H   UNL     1     154.536 164.084 191.016  0.00  0.00    +0.037 HD
ATOM     48  H   UNL     1     153.917 163.853 189.383  0.00  0.00    +0.037 HD
BRANCH  46  49
ATOM     49  C   UNL     1     152.748 165.191 190.554  0.00  0.00    +0.158 C 
ATOM     50  O   UNL     1     151.802 165.243 189.774  0.00  0.00    -0.293 OA
BRANCH  49  52
ATOM     51  C   UNL     1     153.503 166.537 192.472  0.00  0.00    -0.084 C 
ATOM     52  C   UNL     1     152.612 165.677 191.959  0.00  0.00    -0.023 C 
ATOM     53  H   UNL     1     154.332 166.890 191.857  0.00  0.00    +0.057 HD
ATOM     54  H   UNL     1     151.777 165.302 192.537  0.00  0.00    +0.065 HD
BRANCH  51  55
ATOM     55  C   UNL     1     153.451 167.079 193.864  0.00  0.00    -0.046 C 
ATOM     56  H   UNL     1     153.487 166.255 194.584  0.00  0.00    +0.027 HD
ATOM     57  H   UNL     1     152.543 167.661 194.053  0.00  0.00    +0.027 HD
ATOM     58  H   UNL     1     154.314 167.727 194.043  0.00  0.00    +0.027 HD
ENDBRANCH  51  55
ENDBRANCH  49  52
ENDBRANCH  46  49
ENDBRANCH  29  46
ENDBRANCH  26  33
ENDBRANCH  22  26
ENDBRANCH  19  24
ENDBRANCH  17  19
BRANCH  17  59
ATOM     59  O   UNL     1     150.075 167.268 188.193  0.00  0.00    -0.390 OA
ATOM     60  H   UNL     1     149.855 168.227 188.213  0.00  0.00    +0.210 HD
ENDBRANCH  17  59
ENDBRANCH  11  17
ENDBRANCH   7  11
ENDBRANCH   4   9
ENDBRANCH   1   4
BRANCH   1  61
ATOM     61  C   UNL     1     144.738 167.718 191.010  0.00  0.00    -0.025 C 
ATOM     62  H   UNL     1     144.289 168.576 191.529  0.00  0.00    +0.029 HD
ATOM     63  H   UNL     1     144.001 167.352 190.288  0.00  0.00    +0.029 HD
BRANCH  61  64
ATOM     64  C   UNL     1     145.080 166.634 192.052  0.00  0.00    +0.065 C 
ATOM     65  C   UNL     1     143.880 166.341 192.985  0.00  0.00    -0.017 C 
ATOM     66  C   UNL     1     144.348 165.753 194.327  0.00  0.00    -0.043 C 
ATOM     67  C   UNL     1     145.717 165.099 194.177  0.00  0.00    +0.002 C 
ATOM     68  C   UNL     1     146.772 166.118 193.681  0.00  0.00    +0.171 C 
ATOM     69  O   UNL     1     146.172 167.116 192.842  0.00  0.00    -0.345 OA
ATOM     70  C   UNL     1     147.389 166.862 194.888  0.00  0.00    +0.002 C 
ATOM     71  C   UNL     1     148.579 166.117 195.455  0.00  0.00    -0.046 C 
ATOM     72  C   UNL     1     149.637 165.877 194.382  0.00  0.00    -0.026 C 
ATOM     73  C   UNL     1     149.084 165.862 192.950  0.00  0.00    +0.062 C 
ATOM     74  O   UNL     1     147.744 165.362 192.949  0.00  0.00    -0.345 OA
ATOM     75  H   UNL     1     145.393 165.719 191.538  0.00  0.00    +0.060 HD
ATOM     76  H   UNL     1     143.356 167.282 193.206  0.00  0.00    +0.032 HD
ATOM     77  H   UNL     1     144.414 166.562 195.068  0.00  0.00    +0.027 HD
ATOM     78  H   UNL     1     143.628 165.030 194.723  0.00  0.00    +0.027 HD
ATOM     79  H   UNL     1     145.639 164.264 193.468  0.00  0.00    +0.032 HD
ATOM     80  H   UNL     1     146.031 164.642 195.121  0.00  0.00    +0.032 HD
ATOM     81  H   UNL     1     146.638 167.029 195.669  0.00  0.00    +0.032 HD
ATOM     82  H   UNL     1     147.710 167.870 194.600  0.00  0.00    +0.032 HD
ATOM     83  H   UNL     1     148.251 165.153 195.860  0.00  0.00    +0.027 HD
ATOM     84  H   UNL     1     149.020 166.673 196.292  0.00  0.00    +0.027 HD
ATOM     85  H   UNL     1     150.097 164.900 194.589  0.00  0.00    +0.029 HD
ATOM     86  H   UNL     1     150.451 166.599 194.494  0.00  0.00    +0.029 HD
ATOM     87  H   UNL     1     149.672 165.120 192.397  0.00  0.00    +0.060 HD
BRANCH  65  88
ATOM     88  C   UNL     1     142.871 165.404 192.311  0.00  0.00    -0.060 C 
ATOM     89  H   UNL     1     141.969 165.286 192.922  0.00  0.00    +0.023 HD
ATOM     90  H   UNL     1     143.292 164.410 192.136  0.00  0.00    +0.023 HD
ATOM     91  H   UNL     1     142.563 165.804 191.336  0.00  0.00    +0.023 HD
ENDBRANCH  65  88
BRANCH  73  92
ATOM     92  C   UNL     1     149.205 167.177 192.159  0.00  0.00    -0.026 C 
ATOM     93  H   UNL     1     149.675 166.942 191.196  0.00  0.00    +0.029 HD
ATOM     94  H   UNL     1     148.218 167.573 191.915  0.00  0.00    +0.029 HD
BRANCH  92  95
ATOM     95  C   UNL     1     150.020 168.276 192.858  0.00  0.00    -0.045 C 
ATOM     96  H   UNL     1     149.492 168.610 193.757  0.00  0.00    +0.027 HD
ATOM     97  H   UNL     1     150.965 167.844 193.191  0.00  0.00    +0.027 HD
BRANCH  95  98
ATOM     98  C   UNL     1     150.259 169.507 191.956  0.00  0.00    -0.025 C 
ATOM     99  H   UNL     1     149.683 169.329 191.036  0.00  0.00    +0.034 HD
BRANCH  98 100
ATOM    100  C   UNL     1     151.716 169.689 191.532  0.00  0.00    -0.059 C 
ATOM    101  H   UNL     1     151.798 169.772 190.444  0.00  0.00    +0.024 HD
ATOM    102  H   UNL     1     152.337 168.850 191.852  0.00  0.00    +0.024 HD
ATOM    103  H   UNL     1     152.142 170.600 191.961  0.00  0.00    +0.024 HD
ENDBRANCH  98 100
BRANCH  98 104
ATOM    104  C   UNL     1     149.696 170.800 192.518  0.00  0.00    -0.080 C 
ATOM    105  C   UNL     1     148.739 171.628 192.040  0.00  0.00    -0.048 C 
ATOM    106  H   UNL     1     150.165 171.059 193.468  0.00  0.00    +0.058 HD
BRANCH 105 107
ATOM    107  C   UNL     1     147.926 171.325 190.810  0.00  0.00    -0.041 C 
ATOM    108  H   UNL     1     148.351 170.519 190.209  0.00  0.00    +0.028 HD
ATOM    109  H   UNL     1     146.918 170.996 191.084  0.00  0.00    +0.028 HD
ATOM    110  H   UNL     1     147.837 172.225 190.188  0.00  0.00    +0.028 HD
ENDBRANCH 105 107
BRANCH 105 111
ATOM    111  C   UNL     1     148.346 172.925 192.744  0.00  0.00    +0.073 C 
ATOM    112  H   UNL     1     148.607 172.847 193.805  0.00  0.00    +0.064 HD
BRANCH 111 113
ATOM    113  C   UNL     1     146.857 173.248 192.618  0.00  0.00    -0.035 C 
ATOM    114  H   UNL     1     146.271 172.642 193.317  0.00  0.00    +0.026 HD
ATOM    115  H   UNL     1     146.657 174.298 192.862  0.00  0.00    +0.026 HD
ATOM    116  H   UNL     1     146.489 173.052 191.605  0.00  0.00    +0.026 HD
ENDBRANCH 111 113
BRANCH 111 117
ATOM    117  O   UNL     1     149.072 174.040 192.223  0.00  0.00    -0.388 OA
ATOM    118  H   UNL     1     148.519 174.438 191.528  0.00  0.00    +0.210 HD
ENDBRANCH 111 117
ENDBRANCH 105 111
ENDBRANCH  98 104
ENDBRANCH  95  98
ENDBRANCH  92  95
ENDBRANCH  73  92
ENDBRANCH  61  64
ENDBRANCH   1  61
TORSDOF 27
ENDMDL
MODEL 4
REMARK VINA RESULT:      -6.9      3.405      8.985
REMARK  Name = Bistramide A_conf1
REMARK  27 active torsions:
REMARK  status: ('A' for Active; 'I' for Inactive)
REMARK    1  A    between atoms: C_1  and  C_2
REMARK    2  A    between atoms: C_3  and  C_4
REMARK    3  A    between atoms: C_4  and  C_6
REMARK    4  A    between atoms: C_6  and  C_7
REMARK    5  A    between atoms: C_10  and  C_50
REMARK    6  A    between atoms: C_11  and  C_13
REMARK    7  A    between atoms: C_13  and  C_14
REMARK    8  A    between atoms: N_16  and  C_17
REMARK    9  A    between atoms: C_17  and  C_18
REMARK   10  A    between atoms: C_18  and  C_19
REMARK   11  A    between atoms: C_18  and  O_49
REMARK   12  A    between atoms: C_19  and  C_20
REMARK   13  A    between atoms: C_19  and  C_21
REMARK   14  A    between atoms: N_23  and  C_24
REMARK   15  A    between atoms: C_24  and  C_25
REMARK   16  A    between atoms: C_25  and  C_26
REMARK   17  A    between atoms: C_26  and  C_27
REMARK   18  A    between atoms: C_28  and  C_48
REMARK   19  A    between atoms: C_36  and  C_38
REMARK   20  A    between atoms: C_38  and  C_39
REMARK   21  A    between atoms: C_39  and  C_40
REMARK   22  A    between atoms: C_40  and  C_41
REMARK   23  A    between atoms: C_40  and  C_42
REMARK   24  A    between atoms: C_43  and  C_44
REMARK   25  A    between atoms: C_43  and  C_45
REMARK   26  A    between atoms: C_45  and  C_46
REMARK   27  A    between atoms: C_45  and  O_47
REMARK                            x       y       z     vdW  Elec       q    Type
REMARK                         _______ _______ _______ _____ _____    ______ ____
ROOT
ATOM      1  C   UNL     1     146.122 165.468 194.035  0.00  0.00    -0.035 C 
ATOM      2  H   UNL     1     145.232 164.825 194.097  0.00  0.00    +0.028 HD
ATOM      3  H   UNL     1     146.800 164.976 193.329  0.00  0.00    +0.028 HD
ENDROOT
BRANCH   1   4
ATOM      4  C   UNL     1     146.747 165.558 195.425  0.00  0.00    +0.012 C 
ATOM      5  H   UNL     1     146.718 166.580 195.820  0.00  0.00    +0.046 HD
ATOM      6  H   UNL     1     146.194 164.928 196.135  0.00  0.00    +0.046 HD
BRANCH   4   9
ATOM      7  C   UNL     1     149.063 165.802 196.229  0.00  0.00    +0.218 C 
ATOM      8  O   UNL     1     148.762 166.610 197.104  0.00  0.00    -0.275 OA
ATOM      9  N   UNL     1     148.139 165.170 195.432  0.00  0.00    -0.315 N 
ATOM     10  H   UNL     1     148.502 164.581 194.681  0.00  0.00    +0.149 HD
BRANCH   7  11
ATOM     11  C   UNL     1     150.517 165.449 195.935  0.00  0.00    +0.060 C 
ATOM     12  H   UNL     1     151.125 166.169 196.501  0.00  0.00    +0.042 HD
BRANCH  11  13
ATOM     13  C   UNL     1     150.836 164.047 196.451  0.00  0.00    -0.052 C 
ATOM     14  H   UNL     1     150.800 163.293 195.661  0.00  0.00    +0.024 HD
ATOM     15  H   UNL     1     151.836 164.025 196.897  0.00  0.00    +0.024 HD
ATOM     16  H   UNL     1     150.117 163.746 197.220  0.00  0.00    +0.024 HD
ENDBRANCH  11  13
BRANCH  11  17
ATOM     17  C   UNL     1     150.852 165.629 194.438  0.00  0.00    +0.081 C 
ATOM     18  H   UNL     1     150.574 164.712 193.913  0.00  0.00    +0.062 HD
BRANCH  17  19
ATOM     19  C   UNL     1     152.350 165.935 194.207  0.00  0.00    +0.038 C 
ATOM     20  H   UNL     1     152.543 167.010 194.275  0.00  0.00    +0.049 HD
ATOM     21  H   UNL     1     152.967 165.419 194.952  0.00  0.00    +0.049 HD
BRANCH  19  24
ATOM     22  C   UNL     1     152.866 166.288 191.776  0.00  0.00    +0.216 C 
ATOM     23  O   UNL     1     152.238 167.339 191.691  0.00  0.00    -0.276 OA
ATOM     24  N   UNL     1     152.886 165.515 192.918  0.00  0.00    -0.313 N 
ATOM     25  H   UNL     1     153.439 164.668 192.903  0.00  0.00    +0.149 HD
BRANCH  22  26
ATOM     26  C   UNL     1     153.764 165.753 190.680  0.00  0.00    +0.050 C 
ATOM     27  H   UNL     1     154.769 166.127 190.923  0.00  0.00    +0.038 HD
ATOM     28  H   UNL     1     153.773 164.659 190.731  0.00  0.00    +0.038 HD
BRANCH  26  33
ATOM     29  C   UNL     1     152.162 165.394 187.326  0.00  0.00    +0.066 C 
ATOM     30  C   UNL     1     153.272 165.898 186.395  0.00  0.00    -0.026 C 
ATOM     31  C   UNL     1     154.083 167.032 187.019  0.00  0.00    -0.046 C 
ATOM     32  C   UNL     1     154.560 166.673 188.434  0.00  0.00    -0.017 C 
ATOM     33  C   UNL     1     153.346 166.223 189.281  0.00  0.00    +0.070 C 
ATOM     34  O   UNL     1     152.672 165.129 188.643  0.00  0.00    -0.372 OA
ATOM     35  H   UNL     1     151.837 164.417 186.949  0.00  0.00    +0.060 HD
ATOM     36  H   UNL     1     152.871 166.215 185.426  0.00  0.00    +0.029 HD
ATOM     37  H   UNL     1     153.954 165.063 186.187  0.00  0.00    +0.029 HD
ATOM     38  H   UNL     1     153.461 167.936 187.070  0.00  0.00    +0.027 HD
ATOM     39  H   UNL     1     154.935 167.279 186.372  0.00  0.00    +0.027 HD
ATOM     40  H   UNL     1     154.989 167.580 188.883  0.00  0.00    +0.032 HD
ATOM     41  H   UNL     1     152.652 167.071 189.357  0.00  0.00    +0.060 HD
BRANCH  32  42
ATOM     42  C   UNL     1     155.680 165.620 188.371  0.00  0.00    -0.060 C 
ATOM     43  H   UNL     1     156.676 166.079 188.371  0.00  0.00    +0.023 HD
ATOM     44  H   UNL     1     155.592 165.012 187.464  0.00  0.00    +0.023 HD
ATOM     45  H   UNL     1     155.616 164.938 189.228  0.00  0.00    +0.023 HD
ENDBRANCH  32  42
BRANCH  29  46
ATOM     46  C   UNL     1     150.937 166.316 187.376  0.00  0.00    +0.036 C 
ATOM     47  H   UNL     1     151.199 167.337 187.073  0.00  0.00    +0.037 HD
ATOM     48  H   UNL     1     150.560 166.381 188.408  0.00  0.00    +0.037 HD
BRANCH  46  49
ATOM     49  C   UNL     1     149.813 165.789 186.505  0.00  0.00    +0.158 C 
ATOM     50  O   UNL     1     149.731 164.609 186.179  0.00  0.00    -0.293 OA
BRANCH  49  52
ATOM     51  C   UNL     1     149.056 168.087 186.045  0.00  0.00    -0.084 C 
ATOM     52  C   UNL     1     148.776 166.776 186.080  0.00  0.00    -0.023 C 
ATOM     53  H   UNL     1     150.052 168.436 186.323  0.00  0.00    +0.057 HD
ATOM     54  H   UNL     1     147.800 166.389 185.815  0.00  0.00    +0.065 HD
BRANCH  51  55
ATOM     55  C   UNL     1     148.086 169.147 185.634  0.00  0.00    -0.046 C 
ATOM     56  H   UNL     1     147.139 168.688 185.333  0.00  0.00    +0.027 HD
ATOM     57  H   UNL     1     148.455 169.752 184.799  0.00  0.00    +0.027 HD
ATOM     58  H   UNL     1     147.889 169.816 186.478  0.00  0.00    +0.027 HD
ENDBRANCH  51  55
ENDBRANCH  49  52
ENDBRANCH  46  49
ENDBRANCH  29  46
ENDBRANCH  26  33
ENDBRANCH  22  26
ENDBRANCH  19  24
ENDBRANCH  17  19
BRANCH  17  59
ATOM     59  O   UNL     1     150.041 166.684 193.908  0.00  0.00    -0.390 OA
ATOM     60  H   UNL     1     149.443 166.961 194.640  0.00  0.00    +0.210 HD
ENDBRANCH  17  59
ENDBRANCH  11  17
ENDBRANCH   7  11
ENDBRANCH   4   9
ENDBRANCH   1   4
BRANCH   1  61
ATOM     61  C   UNL     1     145.713 166.845 193.495  0.00  0.00    -0.025 C 
ATOM     62  H   UNL     1     145.375 167.445 194.351  0.00  0.00    +0.029 HD
ATOM     63  H   UNL     1     146.594 167.342 193.075  0.00  0.00    +0.029 HD
BRANCH  61  64
ATOM     64  C   UNL     1     144.572 166.772 192.461  0.00  0.00    +0.065 C 
ATOM     65  C   UNL     1     143.427 165.847 192.940  0.00  0.00    -0.017 C 
ATOM     66  C   UNL     1     142.614 165.305 191.752  0.00  0.00    -0.043 C 
ATOM     67  C   UNL     1     142.756 166.222 190.542  0.00  0.00    +0.002 C 
ATOM     68  C   UNL     1     144.239 166.358 190.116  0.00  0.00    +0.171 C 
ATOM     69  O   UNL     1     145.115 166.243 191.246  0.00  0.00    -0.345 OA
ATOM     70  C   UNL     1     144.611 165.214 189.145  0.00  0.00    +0.002 C 
ATOM     71  C   UNL     1     144.308 165.580 187.707  0.00  0.00    -0.046 C 
ATOM     72  C   UNL     1     145.022 166.868 187.308  0.00  0.00    -0.026 C 
ATOM     73  C   UNL     1     145.353 167.792 188.488  0.00  0.00    +0.062 C 
ATOM     74  O   UNL     1     144.363 167.651 189.511  0.00  0.00    -0.345 OA
ATOM     75  H   UNL     1     144.190 167.779 192.267  0.00  0.00    +0.060 HD
ATOM     76  H   UNL     1     143.857 164.981 193.463  0.00  0.00    +0.032 HD
ATOM     77  H   UNL     1     142.986 164.304 191.492  0.00  0.00    +0.027 HD
ATOM     78  H   UNL     1     141.557 165.184 192.009  0.00  0.00    +0.027 HD
ATOM     79  H   UNL     1     142.345 167.209 190.792  0.00  0.00    +0.032 HD
ATOM     80  H   UNL     1     142.143 165.861 189.711  0.00  0.00    +0.032 HD
ATOM     81  H   UNL     1     144.093 164.287 189.418  0.00  0.00    +0.032 HD
ATOM     82  H   UNL     1     145.675 164.966 189.228  0.00  0.00    +0.032 HD
ATOM     83  H   UNL     1     143.228 165.712 187.580  0.00  0.00    +0.027 HD
ATOM     84  H   UNL     1     144.604 164.767 187.031  0.00  0.00    +0.027 HD
ATOM     85  H   UNL     1     144.359 167.408 186.616  0.00  0.00    +0.029 HD
ATOM     86  H   UNL     1     145.912 166.632 186.716  0.00  0.00    +0.029 HD
ATOM     87  H   UNL     1     145.246 168.818 188.118  0.00  0.00    +0.060 HD
BRANCH  65  88
ATOM     88  C   UNL     1     142.510 166.571 193.933  0.00  0.00    -0.060 C 
ATOM     89  H   UNL     1     142.356 165.974 194.838  0.00  0.00    +0.023 HD
ATOM     90  H   UNL     1     141.530 166.784 193.499  0.00  0.00    +0.023 HD
ATOM     91  H   UNL     1     142.949 167.530 194.237  0.00  0.00    +0.023 HD
ENDBRANCH  65  88
BRANCH  73  92
ATOM     92  C   UNL     1     146.780 167.689 189.055  0.00  0.00    -0.026 C 
ATOM     93  H   UNL     1     146.719 167.145 190.006  0.00  0.00    +0.029 HD
ATOM     94  H   UNL     1     147.409 167.078 188.407  0.00  0.00    +0.029 HD
BRANCH  92  95
ATOM     95  C   UNL     1     147.477 169.037 189.294  0.00  0.00    -0.045 C 
ATOM     96  H   UNL     1     148.099 169.288 188.428  0.00  0.00    +0.027 HD
ATOM     97  H   UNL     1     146.712 169.812 189.365  0.00  0.00    +0.027 HD
BRANCH  95  98
ATOM     98  C   UNL     1     148.378 169.029 190.547  0.00  0.00    -0.025 C 
ATOM     99  H   UNL     1     149.408 169.157 190.186  0.00  0.00    +0.034 HD
BRANCH  98 100
ATOM    100  C   UNL     1     148.348 167.711 191.321  0.00  0.00    -0.059 C 
ATOM    101  H   UNL     1     147.605 167.745 192.123  0.00  0.00    +0.024 HD
ATOM    102  H   UNL     1     149.317 167.485 191.770  0.00  0.00    +0.024 HD
ATOM    103  H   UNL     1     148.083 166.874 190.668  0.00  0.00    +0.024 HD
ENDBRANCH  98 100
BRANCH  98 104
ATOM    104  C   UNL     1     148.148 170.205 191.479  0.00  0.00    -0.080 C 
ATOM    105  C   UNL     1     149.006 170.878 192.280  0.00  0.00    -0.048 C 
ATOM    106  H   UNL     1     147.108 170.532 191.459  0.00  0.00    +0.058 HD
BRANCH 105 107
ATOM    107  C   UNL     1     150.487 170.614 192.307  0.00  0.00    -0.041 C 
ATOM    108  H   UNL     1     150.830 170.031 191.451  0.00  0.00    +0.028 HD
ATOM    109  H   UNL     1     151.049 171.554 192.275  0.00  0.00    +0.028 HD
ATOM    110  H   UNL     1     150.757 170.084 193.230  0.00  0.00    +0.028 HD
ENDBRANCH 105 107
BRANCH 105 111
ATOM    111  C   UNL     1     148.558 172.020 193.190  0.00  0.00    +0.073 C 
ATOM    112  H   UNL     1     147.765 171.657 193.852  0.00  0.00    +0.064 HD
BRANCH 111 113
ATOM    113  C   UNL     1     148.046 173.237 192.417  0.00  0.00    -0.035 C 
ATOM    114  H   UNL     1     147.068 173.550 192.798  0.00  0.00    +0.026 HD
ATOM    115  H   UNL     1     148.722 174.092 192.533  0.00  0.00    +0.026 HD
ATOM    116  H   UNL     1     147.942 173.018 191.349  0.00  0.00    +0.026 HD
ENDBRANCH 111 113
BRANCH 111 117
ATOM    117  O   UNL     1     149.625 172.465 194.030  0.00  0.00    -0.388 OA
ATOM    118  H   UNL     1     149.972 171.679 194.488  0.00  0.00    +0.210 HD
ENDBRANCH 111 117
ENDBRANCH 105 111
ENDBRANCH  98 104
ENDBRANCH  95  98
ENDBRANCH  92  95
ENDBRANCH  73  92
ENDBRANCH  61  64
ENDBRANCH   1  61
TORSDOF 27
ENDMDL
MODEL 5
REMARK VINA RESULT:      -6.8      2.329      5.618
REMARK  Name = Bistramide A_conf1
REMARK  27 active torsions:
REMARK  status: ('A' for Active; 'I' for Inactive)
REMARK    1  A    between atoms: C_1  and  C_2
REMARK    2  A    between atoms: C_3  and  C_4
REMARK    3  A    between atoms: C_4  and  C_6
REMARK    4  A    between atoms: C_6  and  C_7
REMARK    5  A    between atoms: C_10  and  C_50
REMARK    6  A    between atoms: C_11  and  C_13
REMARK    7  A    between atoms: C_13  and  C_14
REMARK    8  A    between atoms: N_16  and  C_17
REMARK    9  A    between atoms: C_17  and  C_18
REMARK   10  A    between atoms: C_18  and  C_19
REMARK   11  A    between atoms: C_18  and  O_49
REMARK   12  A    between atoms: C_19  and  C_20
REMARK   13  A    between atoms: C_19  and  C_21
REMARK   14  A    between atoms: N_23  and  C_24
REMARK   15  A    between atoms: C_24  and  C_25
REMARK   16  A    between atoms: C_25  and  C_26
REMARK   17  A    between atoms: C_26  and  C_27
REMARK   18  A    between atoms: C_28  and  C_48
REMARK   19  A    between atoms: C_36  and  C_38
REMARK   20  A    between atoms: C_38  and  C_39
REMARK   21  A    between atoms: C_39  and  C_40
REMARK   22  A    between atoms: C_40  and  C_41
REMARK   23  A    between atoms: C_40  and  C_42
REMARK   24  A    between atoms: C_43  and  C_44
REMARK   25  A    between atoms: C_43  and  C_45
REMARK   26  A    between atoms: C_45  and  C_46
REMARK   27  A    between atoms: C_45  and  O_47
REMARK                            x       y       z     vdW  Elec       q    Type
REMARK                         _______ _______ _______ _____ _____    ______ ____
ROOT
ATOM      1  C   UNL     1     148.009 168.124 190.232  0.00  0.00    -0.035 C 
ATOM      2  H   UNL     1     148.791 168.701 189.719  0.00  0.00    +0.028 HD
ATOM      3  H   UNL     1     147.055 168.539 189.888  0.00  0.00    +0.028 HD
ENDROOT
BRANCH   1   4
ATOM      4  C   UNL     1     148.180 168.316 191.737  0.00  0.00    +0.012 C 
ATOM      5  H   UNL     1     147.495 167.681 192.310  0.00  0.00    +0.046 HD
ATOM      6  H   UNL     1     149.199 168.041 192.044  0.00  0.00    +0.046 HD
BRANCH   4   9
ATOM      7  C   UNL     1     148.911 170.601 192.294  0.00  0.00    +0.218 C 
ATOM      8  O   UNL     1     150.064 170.414 191.916  0.00  0.00    -0.275 OA
ATOM      9  N   UNL     1     147.909 169.671 192.157  0.00  0.00    -0.315 N 
ATOM     10  H   UNL     1     147.007 169.897 192.581  0.00  0.00    +0.149 HD
BRANCH   7  11
ATOM     11  C   UNL     1     148.498 171.898 192.984  0.00  0.00    +0.060 C 
ATOM     12  H   UNL     1     147.746 171.617 193.735  0.00  0.00    +0.042 HD
BRANCH  11  13
ATOM     13  C   UNL     1     149.692 172.512 193.713  0.00  0.00    -0.052 C 
ATOM     14  H   UNL     1     150.319 173.115 193.053  0.00  0.00    +0.024 HD
ATOM     15  H   UNL     1     149.348 173.151 194.534  0.00  0.00    +0.024 HD
ATOM     16  H   UNL     1     150.327 171.729 194.139  0.00  0.00    +0.024 HD
ENDBRANCH  11  13
BRANCH  11  17
ATOM     17  C   UNL     1     147.829 172.878 191.996  0.00  0.00    +0.081 C 
ATOM     18  H   UNL     1     148.261 173.869 192.153  0.00  0.00    +0.062 HD
BRANCH  17  19
ATOM     19  C   UNL     1     146.295 172.935 192.177  0.00  0.00    +0.038 C 
ATOM     20  H   UNL     1     145.998 172.496 193.134  0.00  0.00    +0.049 HD
ATOM     21  H   UNL     1     145.943 173.973 192.143  0.00  0.00    +0.049 HD
BRANCH  19  24
ATOM     22  C   UNL     1     144.176 172.463 190.918  0.00  0.00    +0.216 C 
ATOM     23  O   UNL     1     143.468 173.148 191.650  0.00  0.00    -0.276 OA
ATOM     24  N   UNL     1     145.514 172.240 191.161  0.00  0.00    -0.313 N 
ATOM     25  H   UNL     1     146.025 171.670 190.498  0.00  0.00    +0.149 HD
BRANCH  22  26
ATOM     26  C   UNL     1     143.699 171.855 189.615  0.00  0.00    +0.050 C 
ATOM     27  H   UNL     1     142.792 172.418 189.349  0.00  0.00    +0.038 HD
ATOM     28  H   UNL     1     144.458 172.025 188.845  0.00  0.00    +0.038 HD
BRANCH  26  33
ATOM     29  C   UNL     1     143.807 168.489 191.228  0.00  0.00    +0.066 C 
ATOM     30  C   UNL     1     144.200 167.591 190.049  0.00  0.00    -0.026 C 
ATOM     31  C   UNL     1     143.598 168.068 188.729  0.00  0.00    -0.046 C 
ATOM     32  C   UNL     1     143.856 169.563 188.498  0.00  0.00    -0.017 C 
ATOM     33  C   UNL     1     143.379 170.360 189.735  0.00  0.00    +0.070 C 
ATOM     34  O   UNL     1     144.028 169.875 190.920  0.00  0.00    -0.372 OA
ATOM     35  H   UNL     1     144.497 168.271 192.052  0.00  0.00    +0.060 HD
ATOM     36  H   UNL     1     143.925 166.546 190.230  0.00  0.00    +0.029 HD
ATOM     37  H   UNL     1     145.294 167.608 189.953  0.00  0.00    +0.029 HD
ATOM     38  H   UNL     1     142.514 167.890 188.741  0.00  0.00    +0.027 HD
ATOM     39  H   UNL     1     144.000 167.471 187.900  0.00  0.00    +0.027 HD
ATOM     40  H   UNL     1     143.264 169.874 187.626  0.00  0.00    +0.032 HD
ATOM     41  H   UNL     1     142.296 170.210 189.838  0.00  0.00    +0.060 HD
BRANCH  32  42
ATOM     42  C   UNL     1     145.337 169.804 188.155  0.00  0.00    -0.060 C 
ATOM     43  H   UNL     1     145.796 170.547 188.819  0.00  0.00    +0.023 HD
ATOM     44  H   UNL     1     145.445 170.162 187.127  0.00  0.00    +0.023 HD
ATOM     45  H   UNL     1     145.908 168.871 188.237  0.00  0.00    +0.023 HD
ENDBRANCH  32  42
BRANCH  29  46
ATOM     46  C   UNL     1     142.377 168.250 191.731  0.00  0.00    +0.036 C 
ATOM     47  H   UNL     1     141.674 168.165 190.895  0.00  0.00    +0.037 HD
ATOM     48  H   UNL     1     142.045 169.107 192.337  0.00  0.00    +0.037 HD
BRANCH  46  49
ATOM     49  C   UNL     1     142.298 167.010 192.602  0.00  0.00    +0.158 C 
ATOM     50  O   UNL     1     141.395 166.187 192.494  0.00  0.00    -0.293 OA
BRANCH  49  52
ATOM     51  C   UNL     1     144.182 165.728 193.535  0.00  0.00    -0.084 C 
ATOM     52  C   UNL     1     143.400 166.816 193.591  0.00  0.00    -0.023 C 
ATOM     53  H   UNL     1     144.017 164.981 192.757  0.00  0.00    +0.057 HD
ATOM     54  H   UNL     1     143.530 167.579 194.348  0.00  0.00    +0.065 HD
BRANCH  51  55
ATOM     55  C   UNL     1     145.307 165.447 194.478  0.00  0.00    -0.046 C 
ATOM     56  H   UNL     1     144.985 164.723 195.234  0.00  0.00    +0.027 HD
ATOM     57  H   UNL     1     145.657 166.348 194.993  0.00  0.00    +0.027 HD
ATOM     58  H   UNL     1     146.152 165.017 193.931  0.00  0.00    +0.027 HD
ENDBRANCH  51  55
ENDBRANCH  49  52
ENDBRANCH  46  49
ENDBRANCH  29  46
ENDBRANCH  26  33
ENDBRANCH  22  26
ENDBRANCH  19  24
ENDBRANCH  17  19
BRANCH  17  59
ATOM     59  O   UNL     1     148.157 172.479 190.659  0.00  0.00    -0.390 OA
ATOM     60  H   UNL     1     148.637 173.241 190.259  0.00  0.00    +0.210 HD
ENDBRANCH  17  59
ENDBRANCH  11  17
ENDBRANCH   7  11
ENDBRANCH   4   9
ENDBRANCH   1   4
BRANCH   1  61
ATOM     61  C   UNL     1     148.117 166.649 189.821  0.00  0.00    -0.025 C 
ATOM     62  H   UNL     1     148.829 166.171 190.508  0.00  0.00    +0.029 HD
ATOM     63  H   UNL     1     147.147 166.164 189.967  0.00  0.00    +0.029 HD
BRANCH  61  64
ATOM     64  C   UNL     1     148.621 166.462 188.376  0.00  0.00    +0.065 C 
ATOM     65  C   UNL     1     147.643 165.604 187.538  0.00  0.00    -0.017 C 
ATOM     66  C   UNL     1     148.363 164.933 186.357  0.00  0.00    -0.043 C 
ATOM     67  C   UNL     1     149.626 165.703 185.991  0.00  0.00    +0.002 C 
ATOM     68  C   UNL     1     150.600 165.782 187.192  0.00  0.00    +0.171 C 
ATOM     69  O   UNL     1     149.886 165.795 188.437  0.00  0.00    -0.345 OA
ATOM     70  C   UNL     1     151.509 164.531 187.213  0.00  0.00    +0.002 C 
ATOM     71  C   UNL     1     152.752 164.730 186.370  0.00  0.00    -0.046 C 
ATOM     72  C   UNL     1     153.531 165.960 186.826  0.00  0.00    -0.026 C 
ATOM     73  C   UNL     1     152.676 167.013 187.545  0.00  0.00    +0.062 C 
ATOM     74  O   UNL     1     151.343 166.996 187.025  0.00  0.00    -0.345 OA
ATOM     75  H   UNL     1     148.762 167.442 187.909  0.00  0.00    +0.060 HD
ATOM     76  H   UNL     1     147.234 164.803 188.169  0.00  0.00    +0.032 HD
ATOM     77  H   UNL     1     148.635 163.907 186.641  0.00  0.00    +0.027 HD
ATOM     78  H   UNL     1     147.709 164.847 185.482  0.00  0.00    +0.027 HD
ATOM     79  H   UNL     1     149.347 166.714 185.666  0.00  0.00    +0.032 HD
ATOM     80  H   UNL     1     150.116 165.251 185.122  0.00  0.00    +0.032 HD
ATOM     81  H   UNL     1     150.960 163.644 186.875  0.00  0.00    +0.032 HD
ATOM     82  H   UNL     1     151.814 164.289 188.237  0.00  0.00    +0.032 HD
ATOM     83  H   UNL     1     152.469 164.851 185.319  0.00  0.00    +0.027 HD
ATOM     84  H   UNL     1     153.397 163.844 186.419  0.00  0.00    +0.027 HD
ATOM     85  H   UNL     1     153.971 166.419 185.929  0.00  0.00    +0.029 HD
ATOM     86  H   UNL     1     154.389 165.653 187.433  0.00  0.00    +0.029 HD
ATOM     87  H   UNL     1     153.085 167.990 187.263  0.00  0.00    +0.060 HD
BRANCH  65  88
ATOM     88  C   UNL     1     146.460 166.442 187.040  0.00  0.00    -0.060 C 
ATOM     89  H   UNL     1     146.479 166.547 185.949  0.00  0.00    +0.023 HD
ATOM     90  H   UNL     1     146.460 167.445 187.474  0.00  0.00    +0.023 HD
ATOM     91  H   UNL     1     145.508 165.968 187.312  0.00  0.00    +0.023 HD
ENDBRANCH  65  88
BRANCH  73  92
ATOM     92  C   UNL     1     152.691 166.970 189.083  0.00  0.00    -0.026 C 
ATOM     93  H   UNL     1     152.484 167.986 189.444  0.00  0.00    +0.029 HD
ATOM     94  H   UNL     1     151.874 166.353 189.460  0.00  0.00    +0.029 HD
BRANCH  92  95
ATOM     95  C   UNL     1     154.009 166.478 189.700  0.00  0.00    -0.045 C 
ATOM     96  H   UNL     1     154.666 166.100 188.910  0.00  0.00    +0.027 HD
ATOM     97  H   UNL     1     154.518 167.332 190.150  0.00  0.00    +0.027 HD
BRANCH  95  98
ATOM     98  C   UNL     1     153.800 165.349 190.733  0.00  0.00    -0.025 C 
ATOM     99  H   UNL     1     154.658 165.397 191.418  0.00  0.00    +0.034 HD
BRANCH  98 100
ATOM    100  C   UNL     1     153.804 163.947 190.124  0.00  0.00    -0.059 C 
ATOM    101  H   UNL     1     154.098 163.979 189.071  0.00  0.00    +0.024 HD
ATOM    102  H   UNL     1     152.820 163.479 190.185  0.00  0.00    +0.024 HD
ATOM    103  H   UNL     1     154.514 163.294 190.640  0.00  0.00    +0.024 HD
ENDBRANCH  98 100
BRANCH  98 104
ATOM    104  C   UNL     1     152.586 165.546 191.623  0.00  0.00    -0.080 C 
ATOM    105  C   UNL     1     152.455 166.183 192.809  0.00  0.00    -0.048 C 
ATOM    106  H   UNL     1     151.695 165.091 191.189  0.00  0.00    +0.058 HD
BRANCH 105 107
ATOM    107  C   UNL     1     153.571 166.960 193.456  0.00  0.00    -0.041 C 
ATOM    108  H   UNL     1     153.272 167.429 194.395  0.00  0.00    +0.028 HD
ATOM    109  H   UNL     1     154.409 166.300 193.704  0.00  0.00    +0.028 HD
ATOM    110  H   UNL     1     153.935 167.736 192.770  0.00  0.00    +0.028 HD
ENDBRANCH 105 107
BRANCH 105 111
ATOM    111  C   UNL     1     151.137 166.227 193.579  0.00  0.00    +0.073 C 
ATOM    112  H   UNL     1     150.885 167.271 193.794  0.00  0.00    +0.064 HD
BRANCH 111 113
ATOM    113  C   UNL     1     151.182 165.442 194.891  0.00  0.00    -0.035 C 
ATOM    114  H   UNL     1     151.557 164.427 194.719  0.00  0.00    +0.026 HD
ATOM    115  H   UNL     1     151.860 165.914 195.612  0.00  0.00    +0.026 HD
ATOM    116  H   UNL     1     150.189 165.367 195.346  0.00  0.00    +0.026 HD
ENDBRANCH 111 113
BRANCH 111 117
ATOM    117  O   UNL     1     150.062 165.697 192.801  0.00  0.00    -0.388 OA
ATOM    118  H   UNL     1     149.975 164.757 193.039  0.00  0.00    +0.210 HD
ENDBRANCH 111 117
ENDBRANCH 105 111
ENDBRANCH  98 104
ENDBRANCH  95  98
ENDBRANCH  92  95
ENDBRANCH  73  92
ENDBRANCH  61  64
ENDBRANCH   1  61
TORSDOF 27
ENDMDL
MODEL 6
REMARK VINA RESULT:      -6.8      2.254      4.803
REMARK  Name = Bistramide A_conf1
REMARK  27 active torsions:
REMARK  status: ('A' for Active; 'I' for Inactive)
REMARK    1  A    between atoms: C_1  and  C_2
REMARK    2  A    between atoms: C_3  and  C_4
REMARK    3  A    between atoms: C_4  and  C_6
REMARK    4  A    between atoms: C_6  and  C_7
REMARK    5  A    between atoms: C_10  and  C_50
REMARK    6  A    between atoms: C_11  and  C_13
REMARK    7  A    between atoms: C_13  and  C_14
REMARK    8  A    between atoms: N_16  and  C_17
REMARK    9  A    between atoms: C_17  and  C_18
REMARK   10  A    between atoms: C_18  and  C_19
REMARK   11  A    between atoms: C_18  and  O_49
REMARK   12  A    between atoms: C_19  and  C_20
REMARK   13  A    between atoms: C_19  and  C_21
REMARK   14  A    between atoms: N_23  and  C_24
REMARK   15  A    between atoms: C_24  and  C_25
REMARK   16  A    between atoms: C_25  and  C_26
REMARK   17  A    between atoms: C_26  and  C_27
REMARK   18  A    between atoms: C_28  and  C_48
REMARK   19  A    between atoms: C_36  and  C_38
REMARK   20  A    between atoms: C_38  and  C_39
REMARK   21  A    between atoms: C_39  and  C_40
REMARK   22  A    between atoms: C_40  and  C_41
REMARK   23  A    between atoms: C_40  and  C_42
REMARK   24  A    between atoms: C_43  and  C_44
REMARK   25  A    between atoms: C_43  and  C_45
REMARK   26  A    between atoms: C_45  and  C_46
REMARK   27  A    between atoms: C_45  and  O_47
REMARK                            x       y       z     vdW  Elec       q    Type
REMARK                         _______ _______ _______ _____ _____    ______ ____
ROOT
ATOM      1  C   UNL     1     148.767 167.416 190.721  0.00  0.00    -0.035 C 
ATOM      2  H   UNL     1     149.334 167.167 191.629  0.00  0.00    +0.028 HD
ATOM      3  H   UNL     1     149.021 166.645 189.985  0.00  0.00    +0.028 HD
ENDROOT
BRANCH   1   4
ATOM      4  C   UNL     1     149.207 168.797 190.244  0.00  0.00    +0.012 C 
ATOM      5  H   UNL     1     150.279 168.961 190.398  0.00  0.00    +0.046 HD
ATOM      6  H   UNL     1     149.021 168.907 189.167  0.00  0.00    +0.046 HD
BRANCH   4   9
ATOM      7  C   UNL     1     149.238 170.872 191.572  0.00  0.00    +0.218 C 
ATOM      8  O   UNL     1     150.447 171.038 191.438  0.00  0.00    -0.275 OA
ATOM      9  N   UNL     1     148.538 169.866 190.950  0.00  0.00    -0.315 N 
ATOM     10  H   UNL     1     147.552 169.768 191.196  0.00  0.00    +0.149 HD
BRANCH   7  11
ATOM     11  C   UNL     1     148.405 171.772 192.480  0.00  0.00    +0.060 C 
ATOM     12  H   UNL     1     147.673 171.115 192.970  0.00  0.00    +0.042 HD
BRANCH  11  13
ATOM     13  C   UNL     1     149.287 172.394 193.561  0.00  0.00    -0.052 C 
ATOM     14  H   UNL     1     148.703 172.845 194.367  0.00  0.00    +0.024 HD
ATOM     15  H   UNL     1     149.942 171.634 193.999  0.00  0.00    +0.024 HD
ATOM     16  H   UNL     1     149.919 173.181 193.137  0.00  0.00    +0.024 HD
ENDBRANCH  11  13
BRANCH  11  17
ATOM     17  C   UNL     1     147.618 172.825 191.667  0.00  0.00    +0.081 C 
ATOM     18  H   UNL     1     147.668 173.776 192.203  0.00  0.00    +0.062 HD
BRANCH  17  19
ATOM     19  C   UNL     1     146.143 172.415 191.452  0.00  0.00    +0.038 C 
ATOM     20  H   UNL     1     145.894 171.531 192.046  0.00  0.00    +0.049 HD
ATOM     21  H   UNL     1     145.472 173.233 191.740  0.00  0.00    +0.049 HD
BRANCH  19  24
ATOM     22  C   UNL     1     145.095 170.951 189.704  0.00  0.00    +0.216 C 
ATOM     23  O   UNL     1     144.887 170.014 190.468  0.00  0.00    -0.276 OA
ATOM     24  N   UNL     1     145.774 172.091 190.080  0.00  0.00    -0.313 N 
ATOM     25  H   UNL     1     145.892 172.819 189.387  0.00  0.00    +0.149 HD
BRANCH  22  26
ATOM     26  C   UNL     1     144.561 171.017 188.288  0.00  0.00    +0.050 C 
ATOM     27  H   UNL     1     143.503 170.728 188.366  0.00  0.00    +0.038 HD
ATOM     28  H   UNL     1     144.619 172.053 187.935  0.00  0.00    +0.038 HD
BRANCH  26  33
ATOM     29  C   UNL     1     147.418 168.898 187.152  0.00  0.00    +0.066 C 
ATOM     30  C   UNL     1     147.611 169.383 185.710  0.00  0.00    -0.026 C 
ATOM     31  C   UNL     1     146.290 169.754 185.040  0.00  0.00    -0.046 C 
ATOM     32  C   UNL     1     145.457 170.699 185.917  0.00  0.00    -0.017 C 
ATOM     33  C   UNL     1     145.299 170.079 187.326  0.00  0.00    +0.070 C 
ATOM     34  O   UNL     1     146.587 169.804 187.896  0.00  0.00    -0.372 OA
ATOM     35  H   UNL     1     148.395 168.942 187.647  0.00  0.00    +0.060 HD
ATOM     36  H   UNL     1     148.142 168.641 185.104  0.00  0.00    +0.029 HD
ATOM     37  H   UNL     1     148.249 170.277 185.729  0.00  0.00    +0.029 HD
ATOM     38  H   UNL     1     145.712 168.840 184.850  0.00  0.00    +0.027 HD
ATOM     39  H   UNL     1     146.486 170.206 184.058  0.00  0.00    +0.027 HD
ATOM     40  H   UNL     1     144.463 170.793 185.458  0.00  0.00    +0.032 HD
ATOM     41  H   UNL     1     144.750 169.134 187.221  0.00  0.00    +0.060 HD
BRANCH  32  42
ATOM     42  C   UNL     1     146.086 172.104 185.940  0.00  0.00    -0.060 C 
ATOM     43  H   UNL     1     146.285 172.447 186.962  0.00  0.00    +0.023 HD
ATOM     44  H   UNL     1     145.425 172.834 185.463  0.00  0.00    +0.023 HD
ATOM     45  H   UNL     1     147.033 172.110 185.385  0.00  0.00    +0.023 HD
ENDBRANCH  32  42
BRANCH  29  46
ATOM     46  C   UNL     1     146.900 167.457 187.251  0.00  0.00    +0.036 C 
ATOM     47  H   UNL     1     146.288 167.197 186.379  0.00  0.00    +0.037 HD
ATOM     48  H   UNL     1     146.252 167.352 188.134  0.00  0.00    +0.037 HD
BRANCH  46  49
ATOM     49  C   UNL     1     148.041 166.469 187.395  0.00  0.00    +0.158 C 
ATOM     50  O   UNL     1     149.216 166.795 187.255  0.00  0.00    -0.293 OA
BRANCH  49  52
ATOM     51  C   UNL     1     146.574 164.814 188.477  0.00  0.00    -0.084 C 
ATOM     52  C   UNL     1     147.672 165.067 187.751  0.00  0.00    -0.023 C 
ATOM     53  H   UNL     1     145.941 165.640 188.807  0.00  0.00    +0.057 HD
ATOM     54  H   UNL     1     148.327 164.276 187.406  0.00  0.00    +0.065 HD
BRANCH  51  55
ATOM     55  C   UNL     1     146.124 163.448 188.882  0.00  0.00    -0.046 C 
ATOM     56  H   UNL     1     145.209 163.520 189.480  0.00  0.00    +0.027 HD
ATOM     57  H   UNL     1     146.878 162.915 189.470  0.00  0.00    +0.027 HD
ATOM     58  H   UNL     1     145.903 162.851 187.991  0.00  0.00    +0.027 HD
ENDBRANCH  51  55
ENDBRANCH  49  52
ENDBRANCH  46  49
ENDBRANCH  29  46
ENDBRANCH  26  33
ENDBRANCH  22  26
ENDBRANCH  19  24
ENDBRANCH  17  19
BRANCH  17  59
ATOM     59  O   UNL     1     148.271 173.014 190.406  0.00  0.00    -0.390 OA
ATOM     60  H   UNL     1     148.719 173.890 190.461  0.00  0.00    +0.210 HD
ENDBRANCH  17  59
ENDBRANCH  11  17
ENDBRANCH   7  11
ENDBRANCH   4   9
ENDBRANCH   1   4
BRANCH   1  61
ATOM     61  C   UNL     1     147.265 167.365 191.035  0.00  0.00    -0.025 C 
ATOM     62  H   UNL     1     146.955 168.381 191.316  0.00  0.00    +0.029 HD
ATOM     63  H   UNL     1     146.717 167.096 190.127  0.00  0.00    +0.029 HD
BRANCH  61  64
ATOM     64  C   UNL     1     146.924 166.406 192.194  0.00  0.00    +0.065 C 
ATOM     65  C   UNL     1     145.422 166.464 192.559  0.00  0.00    -0.017 C 
ATOM     66  C   UNL     1     145.183 166.012 194.009  0.00  0.00    -0.043 C 
ATOM     67  C   UNL     1     146.322 165.118 194.487  0.00  0.00    +0.002 C 
ATOM     68  C   UNL     1     147.681 165.857 194.409  0.00  0.00    +0.171 C 
ATOM     69  O   UNL     1     147.693 166.807 193.333  0.00  0.00    -0.345 OA
ATOM     70  C   UNL     1     147.917 166.656 195.712  0.00  0.00    +0.002 C 
ATOM     71  C   UNL     1     148.594 165.811 196.771  0.00  0.00    -0.046 C 
ATOM     72  C   UNL     1     149.910 165.237 196.254  0.00  0.00    -0.026 C 
ATOM     73  C   UNL     1     149.979 165.104 194.726  0.00  0.00    +0.062 C 
ATOM     74  O   UNL     1     148.674 164.846 194.200  0.00  0.00    -0.345 OA
ATOM     75  H   UNL     1     147.209 165.385 191.918  0.00  0.00    +0.060 HD
ATOM     76  H   UNL     1     145.071 167.503 192.479  0.00  0.00    +0.032 HD
ATOM     77  H   UNL     1     145.124 166.898 194.655  0.00  0.00    +0.027 HD
ATOM     78  H   UNL     1     144.226 165.489 194.116  0.00  0.00    +0.027 HD
ATOM     79  H   UNL     1     146.351 164.213 193.866  0.00  0.00    +0.032 HD
ATOM     80  H   UNL     1     146.131 164.760 195.503  0.00  0.00    +0.032 HD
ATOM     81  H   UNL     1     146.975 167.063 196.096  0.00  0.00    +0.032 HD
ATOM     82  H   UNL     1     148.536 167.540 195.518  0.00  0.00    +0.032 HD
ATOM     83  H   UNL     1     147.933 164.989 197.065  0.00  0.00    +0.027 HD
ATOM     84  H   UNL     1     148.778 166.403 197.676  0.00  0.00    +0.027 HD
ATOM     85  H   UNL     1     150.027 164.238 196.697  0.00  0.00    +0.029 HD
ATOM     86  H   UNL     1     150.750 165.818 196.648  0.00  0.00    +0.029 HD
ATOM     87  H   UNL     1     150.561 164.199 194.519  0.00  0.00    +0.060 HD
BRANCH  65  88
ATOM     88  C   UNL     1     144.584 165.624 191.589  0.00  0.00    -0.060 C 
ATOM     89  H   UNL     1     144.134 164.763 192.096  0.00  0.00    +0.023 HD
ATOM     90  H   UNL     1     145.182 165.248 190.754  0.00  0.00    +0.023 HD
ATOM     91  H   UNL     1     143.769 166.222 191.163  0.00  0.00    +0.023 HD
ENDBRANCH  65  88
BRANCH  73  92
ATOM     92  C   UNL     1     150.683 166.247 193.973  0.00  0.00    -0.026 C 
ATOM     93  H   UNL     1     149.917 166.984 193.699  0.00  0.00    +0.029 HD
ATOM     94  H   UNL     1     151.374 166.775 194.632  0.00  0.00    +0.029 HD
BRANCH  92  95
ATOM     95  C   UNL     1     151.437 165.815 192.707  0.00  0.00    -0.045 C 
ATOM     96  H   UNL     1     152.056 164.938 192.928  0.00  0.00    +0.027 HD
ATOM     97  H   UNL     1     150.705 165.502 191.960  0.00  0.00    +0.027 HD
BRANCH  95  98
ATOM     98  C   UNL     1     152.357 166.924 192.152  0.00  0.00    -0.025 C 
ATOM     99  H   UNL     1     153.360 166.721 192.555  0.00  0.00    +0.034 HD
BRANCH  98 100
ATOM    100  C   UNL     1     151.977 168.330 192.615  0.00  0.00    -0.059 C 
ATOM    101  H   UNL     1     152.864 168.896 192.917  0.00  0.00    +0.024 HD
ATOM    102  H   UNL     1     151.291 168.304 193.463  0.00  0.00    +0.024 HD
ATOM    103  H   UNL     1     151.491 168.893 191.813  0.00  0.00    +0.024 HD
ENDBRANCH  98 100
BRANCH  98 104
ATOM    104  C   UNL     1     152.533 166.883 190.645  0.00  0.00    -0.080 C 
ATOM    105  C   UNL     1     153.548 166.408 189.887  0.00  0.00    -0.048 C 
ATOM    106  H   UNL     1     151.669 167.308 190.131  0.00  0.00    +0.058 HD
BRANCH 105 107
ATOM    107  C   UNL     1     154.737 165.685 190.461  0.00  0.00    -0.041 C 
ATOM    108  H   UNL     1     155.435 166.354 190.968  0.00  0.00    +0.028 HD
ATOM    109  H   UNL     1     154.420 164.955 191.213  0.00  0.00    +0.028 HD
ATOM    110  H   UNL     1     155.271 165.150 189.665  0.00  0.00    +0.028 HD
ENDBRANCH 105 107
BRANCH 105 111
ATOM    111  C   UNL     1     153.552 166.506 188.363  0.00  0.00    +0.073 C 
ATOM    112  H   UNL     1     152.569 166.851 188.026  0.00  0.00    +0.064 HD
BRANCH 111 113
ATOM    113  C   UNL     1     153.878 165.178 187.678  0.00  0.00    -0.035 C 
ATOM    114  H   UNL     1     153.041 164.853 187.052  0.00  0.00    +0.026 HD
ATOM    115  H   UNL     1     154.749 165.275 187.020  0.00  0.00    +0.026 HD
ATOM    116  H   UNL     1     154.083 164.390 188.410  0.00  0.00    +0.026 HD
ENDBRANCH 111 113
BRANCH 111 117
ATOM    117  O   UNL     1     154.505 167.468 187.906  0.00  0.00    -0.388 OA
ATOM    118  H   UNL     1     154.021 168.299 187.758  0.00  0.00    +0.210 HD
ENDBRANCH 111 117
ENDBRANCH 105 111
ENDBRANCH  98 104
ENDBRANCH  95  98
ENDBRANCH  92  95
ENDBRANCH  73  92
ENDBRANCH  61  64
ENDBRANCH   1  61
TORSDOF 27
ENDMDL
MODEL 7
REMARK VINA RESULT:      -6.8      1.855      4.915
REMARK  Name = Bistramide A_conf1
REMARK  27 active torsions:
REMARK  status: ('A' for Active; 'I' for Inactive)
REMARK    1  A    between atoms: C_1  and  C_2
REMARK    2  A    between atoms: C_3  and  C_4
REMARK    3  A    between atoms: C_4  and  C_6
REMARK    4  A    between atoms: C_6  and  C_7
REMARK    5  A    between atoms: C_10  and  C_50
REMARK    6  A    between atoms: C_11  and  C_13
REMARK    7  A    between atoms: C_13  and  C_14
REMARK    8  A    between atoms: N_16  and  C_17
REMARK    9  A    between atoms: C_17  and  C_18
REMARK   10  A    between atoms: C_18  and  C_19
REMARK   11  A    between atoms: C_18  and  O_49
REMARK   12  A    between atoms: C_19  and  C_20
REMARK   13  A    between atoms: C_19  and  C_21
REMARK   14  A    between atoms: N_23  and  C_24
REMARK   15  A    between atoms: C_24  and  C_25
REMARK   16  A    between atoms: C_25  and  C_26
REMARK   17  A    between atoms: C_26  and  C_27
REMARK   18  A    between atoms: C_28  and  C_48
REMARK   19  A    between atoms: C_36  and  C_38
REMARK   20  A    between atoms: C_38  and  C_39
REMARK   21  A    between atoms: C_39  and  C_40
REMARK   22  A    between atoms: C_40  and  C_41
REMARK   23  A    between atoms: C_40  and  C_42
REMARK   24  A    between atoms: C_43  and  C_44
REMARK   25  A    between atoms: C_43  and  C_45
REMARK   26  A    between atoms: C_45  and  C_46
REMARK   27  A    between atoms: C_45  and  O_47
REMARK                            x       y       z     vdW  Elec       q    Type
REMARK                         _______ _______ _______ _____ _____    ______ ____
ROOT
ATOM      1  C   UNL     1     147.834 167.519 190.638  0.00  0.00    -0.035 C 
ATOM      2  H   UNL     1     146.928 168.082 190.373  0.00  0.00    +0.028 HD
ATOM      3  H   UNL     1     147.586 166.958 191.546  0.00  0.00    +0.028 HD
ENDROOT
BRANCH   1   4
ATOM      4  C   UNL     1     148.960 168.515 190.898  0.00  0.00    +0.012 C 
ATOM      5  H   UNL     1     149.707 168.115 191.593  0.00  0.00    +0.046 HD
ATOM      6  H   UNL     1     149.490 168.747 189.963  0.00  0.00    +0.046 HD
BRANCH   4   9
ATOM      7  C   UNL     1     149.350 170.732 191.899  0.00  0.00    +0.218 C 
ATOM      8  O   UNL     1     150.553 170.726 191.647  0.00  0.00    -0.275 OA
ATOM      9  N   UNL     1     148.486 169.745 191.490  0.00  0.00    -0.315 N 
ATOM     10  H   UNL     1     147.524 169.805 191.825  0.00  0.00    +0.149 HD
BRANCH   7  11
ATOM     11  C   UNL     1     148.714 171.844 192.728  0.00  0.00    +0.060 C 
ATOM     12  H   UNL     1     147.825 171.402 193.198  0.00  0.00    +0.042 HD
BRANCH  11  13
ATOM     13  C   UNL     1     149.667 172.288 193.836  0.00  0.00    -0.052 C 
ATOM     14  H   UNL     1     150.539 171.635 193.924  0.00  0.00    +0.024 HD
ATOM     15  H   UNL     1     150.022 173.306 193.645  0.00  0.00    +0.024 HD
ATOM     16  H   UNL     1     149.160 172.285 194.806  0.00  0.00    +0.024 HD
ENDBRANCH  11  13
BRANCH  11  17
ATOM     17  C   UNL     1     148.240 173.013 191.838  0.00  0.00    +0.081 C 
ATOM     18  H   UNL     1     148.662 173.939 192.238  0.00  0.00    +0.062 HD
BRANCH  17  19
ATOM     19  C   UNL     1     146.699 173.116 191.779  0.00  0.00    +0.038 C 
ATOM     20  H   UNL     1     146.280 173.275 192.777  0.00  0.00    +0.049 HD
ATOM     21  H   UNL     1     146.395 173.949 191.133  0.00  0.00    +0.049 HD
BRANCH  19  24
ATOM     22  C   UNL     1     145.939 171.638 189.898  0.00  0.00    +0.216 C 
ATOM     23  O   UNL     1     146.302 172.407 189.013  0.00  0.00    -0.276 OA
ATOM     24  N   UNL     1     146.011 171.950 191.239  0.00  0.00    -0.313 N 
ATOM     25  H   UNL     1     145.698 171.252 191.903  0.00  0.00    +0.149 HD
BRANCH  22  26
ATOM     26  C   UNL     1     145.455 170.227 189.641  0.00  0.00    +0.050 C 
ATOM     27  H   UNL     1     145.746 170.007 188.604  0.00  0.00    +0.038 HD
ATOM     28  H   UNL     1     145.986 169.541 190.310  0.00  0.00    +0.038 HD
BRANCH  26  33
ATOM     29  C   UNL     1     142.243 170.230 191.547  0.00  0.00    +0.066 C 
ATOM     30  C   UNL     1     141.619 168.900 191.106  0.00  0.00    -0.026 C 
ATOM     31  C   UNL     1     141.939 168.562 189.652  0.00  0.00    -0.046 C 
ATOM     32  C   UNL     1     143.441 168.679 189.362  0.00  0.00    -0.017 C 
ATOM     33  C   UNL     1     143.938 170.075 189.809  0.00  0.00    +0.070 C 
ATOM     34  O   UNL     1     143.636 170.289 191.196  0.00  0.00    -0.372 OA
ATOM     35  H   UNL     1     142.228 170.253 192.642  0.00  0.00    +0.060 HD
ATOM     36  H   UNL     1     140.535 168.895 191.262  0.00  0.00    +0.029 HD
ATOM     37  H   UNL     1     142.024 168.102 191.742  0.00  0.00    +0.029 HD
ATOM     38  H   UNL     1     141.392 169.248 188.992  0.00  0.00    +0.027 HD
ATOM     39  H   UNL     1     141.575 167.552 189.418  0.00  0.00    +0.027 HD
ATOM     40  H   UNL     1     143.581 168.585 188.276  0.00  0.00    +0.032 HD
ATOM     41  H   UNL     1     143.412 170.830 189.211  0.00  0.00    +0.060 HD
BRANCH  32  42
ATOM     42  C   UNL     1     144.208 167.521 190.024  0.00  0.00    -0.060 C 
ATOM     43  H   UNL     1     144.190 167.590 191.118  0.00  0.00    +0.023 HD
ATOM     44  H   UNL     1     145.255 167.515 189.706  0.00  0.00    +0.023 HD
ATOM     45  H   UNL     1     143.774 166.556 189.733  0.00  0.00    +0.023 HD
ENDBRANCH  32  42
BRANCH  29  46
ATOM     46  C   UNL     1     141.486 171.463 191.035  0.00  0.00    +0.036 C 
ATOM     47  H   UNL     1     140.407 171.355 191.190  0.00  0.00    +0.037 HD
ATOM     48  H   UNL     1     141.640 171.573 189.951  0.00  0.00    +0.037 HD
BRANCH  46  49
ATOM     49  C   UNL     1     141.981 172.731 191.704  0.00  0.00    +0.158 C 
ATOM     50  O   UNL     1     143.126 173.148 191.559  0.00  0.00    -0.293 OA
BRANCH  49  52
ATOM     51  C   UNL     1     140.464 172.922 193.634  0.00  0.00    -0.084 C 
ATOM     52  C   UNL     1     140.991 173.480 192.535  0.00  0.00    -0.023 C 
ATOM     53  H   UNL     1     140.763 171.915 193.928  0.00  0.00    +0.057 HD
ATOM     54  H   UNL     1     140.718 174.475 192.208  0.00  0.00    +0.065 HD
BRANCH  51  55
ATOM     55  C   UNL     1     139.469 173.591 194.526  0.00  0.00    -0.046 C 
ATOM     56  H   UNL     1     138.510 173.688 194.007  0.00  0.00    +0.027 HD
ATOM     57  H   UNL     1     139.792 174.589 194.840  0.00  0.00    +0.027 HD
ATOM     58  H   UNL     1     139.311 172.987 195.425  0.00  0.00    +0.027 HD
ENDBRANCH  51  55
ENDBRANCH  49  52
ENDBRANCH  46  49
ENDBRANCH  29  46
ENDBRANCH  26  33
ENDBRANCH  22  26
ENDBRANCH  19  24
ENDBRANCH  17  19
BRANCH  17  59
ATOM     59  O   UNL     1     148.778 172.837 190.521  0.00  0.00    -0.390 OA
ATOM     60  H   UNL     1     149.506 173.495 190.435  0.00  0.00    +0.210 HD
ENDBRANCH  17  59
ENDBRANCH  11  17
ENDBRANCH   7  11
ENDBRANCH   4   9
ENDBRANCH   1   4
BRANCH   1  61
ATOM     61  C   UNL     1     148.174 166.547 189.499  0.00  0.00    -0.025 C 
ATOM     62  H   UNL     1     148.166 165.533 189.922  0.00  0.00    +0.029 HD
ATOM     63  H   UNL     1     147.385 166.591 188.741  0.00  0.00    +0.029 HD
BRANCH  61  64
ATOM     64  C   UNL     1     149.559 166.812 188.875  0.00  0.00    +0.065 C 
ATOM     65  C   UNL     1     149.532 166.647 187.337  0.00  0.00    -0.017 C 
ATOM     66  C   UNL     1     150.931 166.324 186.787  0.00  0.00    -0.043 C 
ATOM     67  C   UNL     1     152.011 166.806 187.749  0.00  0.00    +0.002 C 
ATOM     68  C   UNL     1     151.854 166.144 189.140  0.00  0.00    +0.171 C 
ATOM     69  O   UNL     1     150.476 165.860 189.426  0.00  0.00    -0.345 OA
ATOM     70  C   UNL     1     152.601 164.791 189.164  0.00  0.00    +0.002 C 
ATOM     71  C   UNL     1     154.052 164.961 189.563  0.00  0.00    -0.046 C 
ATOM     72  C   UNL     1     154.171 165.657 190.916  0.00  0.00    -0.026 C 
ATOM     73  C   UNL     1     152.963 166.533 191.277  0.00  0.00    +0.062 C 
ATOM     74  O   UNL     1     152.383 167.078 190.089  0.00  0.00    -0.345 OA
ATOM     75  H   UNL     1     149.893 167.819 189.143  0.00  0.00    +0.060 HD
ATOM     76  H   UNL     1     148.876 165.804 187.075  0.00  0.00    +0.032 HD
ATOM     77  H   UNL     1     151.022 165.236 186.658  0.00  0.00    +0.027 HD
ATOM     78  H   UNL     1     151.087 166.765 185.797  0.00  0.00    +0.027 HD
ATOM     79  H   UNL     1     151.944 167.897 187.843  0.00  0.00    +0.032 HD
ATOM     80  H   UNL     1     153.007 166.615 187.338  0.00  0.00    +0.032 HD
ATOM     81  H   UNL     1     152.531 164.289 188.192  0.00  0.00    +0.032 HD
ATOM     82  H   UNL     1     152.124 164.096 189.864  0.00  0.00    +0.032 HD
ATOM     83  H   UNL     1     154.576 165.555 188.805  0.00  0.00    +0.027 HD
ATOM     84  H   UNL     1     154.559 163.988 189.601  0.00  0.00    +0.027 HD
ATOM     85  H   UNL     1     155.066 166.294 190.879  0.00  0.00    +0.029 HD
ATOM     86  H   UNL     1     154.384 164.919 191.696  0.00  0.00    +0.029 HD
ATOM     87  H   UNL     1     153.358 167.393 191.830  0.00  0.00    +0.060 HD
BRANCH  65  88
ATOM     88  C   UNL     1     148.963 167.897 186.656  0.00  0.00    -0.060 C 
ATOM     89  H   UNL     1     148.626 168.632 187.395  0.00  0.00    +0.023 HD
ATOM     90  H   UNL     1     148.115 167.657 186.009  0.00  0.00    +0.023 HD
ATOM     91  H   UNL     1     149.725 168.378 186.031  0.00  0.00    +0.023 HD
ENDBRANCH  65  88
BRANCH  73  92
ATOM     92  C   UNL     1     151.902 165.889 192.188  0.00  0.00    -0.026 C 
ATOM     93  H   UNL     1     151.272 165.247 191.559  0.00  0.00    +0.029 HD
ATOM     94  H   UNL     1     152.370 165.222 192.913  0.00  0.00    +0.029 HD
BRANCH  92  95
ATOM     95  C   UNL     1     151.007 166.887 192.939  0.00  0.00    -0.045 C 
ATOM     96  H   UNL     1     151.604 167.749 193.257  0.00  0.00    +0.027 HD
ATOM     97  H   UNL     1     150.256 167.265 192.244  0.00  0.00    +0.027 HD
BRANCH  95  98
ATOM     98  C   UNL     1     150.347 166.271 194.191  0.00  0.00    -0.025 C 
ATOM     99  H   UNL     1     150.126 167.110 194.866  0.00  0.00    +0.034 HD
BRANCH  98 100
ATOM    100  C   UNL     1     151.257 165.317 194.964  0.00  0.00    -0.059 C 
ATOM    101  H   UNL     1     152.199 165.806 195.232  0.00  0.00    +0.024 HD
ATOM    102  H   UNL     1     151.496 164.426 194.380  0.00  0.00    +0.024 HD
ATOM    103  H   UNL     1     150.787 164.987 195.894  0.00  0.00    +0.024 HD
ENDBRANCH  98 100
BRANCH  98 104
ATOM    104  C   UNL     1     148.998 165.629 193.923  0.00  0.00    -0.080 C 
ATOM    105  C   UNL     1     147.745 166.124 194.042  0.00  0.00    -0.048 C 
ATOM    106  H   UNL     1     149.108 164.602 193.570  0.00  0.00    +0.058 HD
BRANCH 105 107
ATOM    107  C   UNL     1     147.455 167.558 194.395  0.00  0.00    -0.041 C 
ATOM    108  H   UNL     1     148.310 168.064 194.848  0.00  0.00    +0.028 HD
ATOM    109  H   UNL     1     147.205 168.135 193.498  0.00  0.00    +0.028 HD
ATOM    110  H   UNL     1     146.604 167.610 195.086  0.00  0.00    +0.028 HD
ENDBRANCH 105 107
BRANCH 105 111
ATOM    111  C   UNL     1     146.499 165.286 193.764  0.00  0.00    +0.073 C 
ATOM    112  H   UNL     1     146.737 164.535 193.003  0.00  0.00    +0.064 HD
BRANCH 111 113
ATOM    113  C   UNL     1     145.309 166.121 193.287  0.00  0.00    -0.035 C 
ATOM    114  H   UNL     1     145.084 165.905 192.237  0.00  0.00    +0.026 HD
ATOM    115  H   UNL     1     144.405 165.885 193.861  0.00  0.00    +0.026 HD
ATOM    116  H   UNL     1     145.510 167.193 193.380  0.00  0.00    +0.026 HD
ENDBRANCH 111 113
BRANCH 111 117
ATOM    117  O   UNL     1     146.081 164.573 194.929  0.00  0.00    -0.388 OA
ATOM    118  H   UNL     1     145.638 165.214 195.512  0.00  0.00    +0.210 HD
ENDBRANCH 111 117
ENDBRANCH 105 111
ENDBRANCH  98 104
ENDBRANCH  95  98
ENDBRANCH  92  95
ENDBRANCH  73  92
ENDBRANCH  61  64
ENDBRANCH   1  61
TORSDOF 27
ENDMDL
MODEL 8
REMARK VINA RESULT:      -6.8      3.661      8.196
REMARK  Name = Bistramide A_conf1
REMARK  27 active torsions:
REMARK  status: ('A' for Active; 'I' for Inactive)
REMARK    1  A    between atoms: C_1  and  C_2
REMARK    2  A    between atoms: C_3  and  C_4
REMARK    3  A    between atoms: C_4  and  C_6
REMARK    4  A    between atoms: C_6  and  C_7
REMARK    5  A    between atoms: C_10  and  C_50
REMARK    6  A    between atoms: C_11  and  C_13
REMARK    7  A    between atoms: C_13  and  C_14
REMARK    8  A    between atoms: N_16  and  C_17
REMARK    9  A    between atoms: C_17  and  C_18
REMARK   10  A    between atoms: C_18  and  C_19
REMARK   11  A    between atoms: C_18  and  O_49
REMARK   12  A    between atoms: C_19  and  C_20
REMARK   13  A    between atoms: C_19  and  C_21
REMARK   14  A    between atoms: N_23  and  C_24
REMARK   15  A    between atoms: C_24  and  C_25
REMARK   16  A    between atoms: C_25  and  C_26
REMARK   17  A    between atoms: C_26  and  C_27
REMARK   18  A    between atoms: C_28  and  C_48
REMARK   19  A    between atoms: C_36  and  C_38
REMARK   20  A    between atoms: C_38  and  C_39
REMARK   21  A    between atoms: C_39  and  C_40
REMARK   22  A    between atoms: C_40  and  C_41
REMARK   23  A    between atoms: C_40  and  C_42
REMARK   24  A    between atoms: C_43  and  C_44
REMARK   25  A    between atoms: C_43  and  C_45
REMARK   26  A    between atoms: C_45  and  C_46
REMARK   27  A    between atoms: C_45  and  O_47
REMARK                            x       y       z     vdW  Elec       q    Type
REMARK                         _______ _______ _______ _____ _____    ______ ____
ROOT
ATOM      1  C   UNL     1     146.677 167.457 189.262  0.00  0.00    -0.035 C 
ATOM      2  H   UNL     1     145.635 167.152 189.092  0.00  0.00    +0.028 HD
ATOM      3  H   UNL     1     147.293 166.763 188.681  0.00  0.00    +0.028 HD
ENDROOT
BRANCH   1   4
ATOM      4  C   UNL     1     146.975 167.340 190.754  0.00  0.00    +0.012 C 
ATOM      5  H   UNL     1     147.881 166.753 190.945  0.00  0.00    +0.046 HD
ATOM      6  H   UNL     1     147.145 168.335 191.190  0.00  0.00    +0.046 HD
BRANCH   4   9
ATOM      7  C   UNL     1     145.874 166.672 192.854  0.00  0.00    +0.218 C 
ATOM      8  O   UNL     1     146.618 167.352 193.557  0.00  0.00    -0.275 OA
ATOM      9  N   UNL     1     145.915 166.680 191.481  0.00  0.00    -0.315 N 
ATOM     10  H   UNL     1     145.310 166.016 190.996  0.00  0.00    +0.149 HD
BRANCH   7  11
ATOM     11  C   UNL     1     144.844 165.727 193.464  0.00  0.00    +0.060 C 
ATOM     12  H   UNL     1     144.694 164.924 192.727  0.00  0.00    +0.042 HD
BRANCH  11  13
ATOM     13  C   UNL     1     145.393 165.101 194.745  0.00  0.00    -0.052 C 
ATOM     14  H   UNL     1     144.726 165.242 195.598  0.00  0.00    +0.024 HD
ATOM     15  H   UNL     1     145.547 164.026 194.606  0.00  0.00    +0.024 HD
ATOM     16  H   UNL     1     146.357 165.548 195.009  0.00  0.00    +0.024 HD
ENDBRANCH  11  13
BRANCH  11  17
ATOM     17  C   UNL     1     143.484 166.429 193.674  0.00  0.00    +0.081 C 
ATOM     18  H   UNL     1     143.270 166.443 194.745  0.00  0.00    +0.062 HD
BRANCH  17  19
ATOM     19  C   UNL     1     142.338 165.722 192.914  0.00  0.00    +0.038 C 
ATOM     20  H   UNL     1     142.094 164.763 193.381  0.00  0.00    +0.049 HD
ATOM     21  H   UNL     1     141.438 166.349 192.908  0.00  0.00    +0.049 HD
BRANCH  19  24
ATOM     22  C   UNL     1     142.461 166.337 190.484  0.00  0.00    +0.216 C 
ATOM     23  O   UNL     1     141.935 167.435 190.631  0.00  0.00    -0.276 OA
ATOM     24  N   UNL     1     142.601 165.427 191.511  0.00  0.00    -0.313 N 
ATOM     25  H   UNL     1     143.056 164.548 191.303  0.00  0.00    +0.149 HD
BRANCH  22  26
ATOM     26  C   UNL     1     143.100 165.875 189.190  0.00  0.00    +0.050 C 
ATOM     27  H   UNL     1     142.685 166.533 188.414  0.00  0.00    +0.038 HD
ATOM     28  H   UNL     1     144.182 166.039 189.251  0.00  0.00    +0.038 HD
BRANCH  26  33
ATOM     29  C   UNL     1     143.861 162.482 187.831  0.00  0.00    +0.066 C 
ATOM     30  C   UNL     1     142.612 162.197 186.987  0.00  0.00    -0.026 C 
ATOM     31  C   UNL     1     141.346 162.784 187.608  0.00  0.00    -0.046 C 
ATOM     32  C   UNL     1     141.533 164.262 187.980  0.00  0.00    -0.017 C 
ATOM     33  C   UNL     1     142.795 164.409 188.863  0.00  0.00    +0.070 C 
ATOM     34  O   UNL     1     143.941 163.872 188.185  0.00  0.00    -0.372 OA
ATOM     35  H   UNL     1     144.735 162.303 187.194  0.00  0.00    +0.060 HD
ATOM     36  H   UNL     1     142.481 161.124 186.815  0.00  0.00    +0.029 HD
ATOM     37  H   UNL     1     142.753 162.652 185.998  0.00  0.00    +0.029 HD
ATOM     38  H   UNL     1     141.090 162.217 188.512  0.00  0.00    +0.027 HD
ATOM     39  H   UNL     1     140.503 162.661 186.916  0.00  0.00    +0.027 HD
ATOM     40  H   UNL     1     140.655 164.573 188.563  0.00  0.00    +0.032 HD
ATOM     41  H   UNL     1     142.632 163.839 189.787  0.00  0.00    +0.060 HD
BRANCH  32  42
ATOM     42  C   UNL     1     141.573 165.134 186.713  0.00  0.00    -0.060 C 
ATOM     43  H   UNL     1     141.297 166.174 186.922  0.00  0.00    +0.023 HD
ATOM     44  H   UNL     1     140.884 164.750 185.954  0.00  0.00    +0.023 HD
ATOM     45  H   UNL     1     142.578 165.127 186.273  0.00  0.00    +0.023 HD
ENDBRANCH  32  42
BRANCH  29  46
ATOM     46  C   UNL     1     143.984 161.583 189.069  0.00  0.00    +0.036 C 
ATOM     47  H   UNL     1     142.997 161.272 189.430  0.00  0.00    +0.037 HD
ATOM     48  H   UNL     1     144.459 162.140 189.890  0.00  0.00    +0.037 HD
BRANCH  46  49
ATOM     49  C   UNL     1     144.839 160.363 188.782  0.00  0.00    +0.158 C 
ATOM     50  O   UNL     1     145.583 160.295 187.809  0.00  0.00    -0.293 OA
BRANCH  49  52
ATOM     51  C   UNL     1     143.621 158.551 189.922  0.00  0.00    -0.084 C 
ATOM     52  C   UNL     1     144.759 159.244 189.767  0.00  0.00    -0.023 C 
ATOM     53  H   UNL     1     142.747 158.804 189.319  0.00  0.00    +0.057 HD
ATOM     54  H   UNL     1     145.647 159.026 190.347  0.00  0.00    +0.065 HD
BRANCH  51  55
ATOM     55  C   UNL     1     143.446 157.418 190.879  0.00  0.00    -0.046 C 
ATOM     56  H   UNL     1     143.778 156.484 190.414  0.00  0.00    +0.027 HD
ATOM     57  H   UNL     1     142.405 157.292 191.194  0.00  0.00    +0.027 HD
ATOM     58  H   UNL     1     144.053 157.589 191.773  0.00  0.00    +0.027 HD
ENDBRANCH  51  55
ENDBRANCH  49  52
ENDBRANCH  46  49
ENDBRANCH  29  46
ENDBRANCH  26  33
ENDBRANCH  22  26
ENDBRANCH  19  24
ENDBRANCH  17  19
BRANCH  17  59
ATOM     59  O   UNL     1     143.599 167.792 193.246  0.00  0.00    -0.390 OA
ATOM     60  H   UNL     1     142.688 168.079 193.006  0.00  0.00    +0.210 HD
ENDBRANCH  17  59
ENDBRANCH  11  17
ENDBRANCH   7  11
ENDBRANCH   4   9
ENDBRANCH   1   4
BRANCH   1  61
ATOM     61  C   UNL     1     146.873 168.889 188.744  0.00  0.00    -0.025 C 
ATOM     62  H   UNL     1     147.944 169.017 188.535  0.00  0.00    +0.029 HD
ATOM     63  H   UNL     1     146.339 169.005 187.796  0.00  0.00    +0.029 HD
BRANCH  61  64
ATOM     64  C   UNL     1     146.437 169.962 189.762  0.00  0.00    +0.065 C 
ATOM     65  C   UNL     1     145.270 170.821 189.220  0.00  0.00    -0.017 C 
ATOM     66  C   UNL     1     145.223 172.196 189.908  0.00  0.00    -0.043 C 
ATOM     67  C   UNL     1     145.911 172.139 191.267  0.00  0.00    +0.002 C 
ATOM     68  C   UNL     1     147.389 171.699 191.126  0.00  0.00    +0.171 C 
ATOM     69  O   UNL     1     147.561 170.813 190.010  0.00  0.00    -0.345 OA
ATOM     70  C   UNL     1     148.280 172.934 190.857  0.00  0.00    +0.002 C 
ATOM     71  C   UNL     1     148.740 173.582 192.146  0.00  0.00    -0.046 C 
ATOM     72  C   UNL     1     149.476 172.579 193.030  0.00  0.00    -0.026 C 
ATOM     73  C   UNL     1     149.092 171.116 192.771  0.00  0.00    +0.062 C 
ATOM     74  O   UNL     1     147.727 171.037 192.351  0.00  0.00    -0.345 OA
ATOM     75  H   UNL     1     146.148 169.479 190.701  0.00  0.00    +0.060 HD
ATOM     76  H   UNL     1     145.421 170.999 188.145  0.00  0.00    +0.032 HD
ATOM     77  H   UNL     1     145.737 172.931 189.273  0.00  0.00    +0.027 HD
ATOM     78  H   UNL     1     144.194 172.554 190.023  0.00  0.00    +0.027 HD
ATOM     79  H   UNL     1     145.370 171.435 191.913  0.00  0.00    +0.032 HD
ATOM     80  H   UNL     1     145.839 173.105 191.776  0.00  0.00    +0.032 HD
ATOM     81  H   UNL     1     147.754 173.665 190.231  0.00  0.00    +0.032 HD
ATOM     82  H   UNL     1     149.161 172.655 190.269  0.00  0.00    +0.032 HD
ATOM     83  H   UNL     1     147.875 173.976 192.690  0.00  0.00    +0.027 HD
ATOM     84  H   UNL     1     149.393 174.438 191.935  0.00  0.00    +0.027 HD
ATOM     85  H   UNL     1     149.233 172.825 194.074  0.00  0.00    +0.029 HD
ATOM     86  H   UNL     1     150.556 172.735 192.950  0.00  0.00    +0.029 HD
ATOM     87  H   UNL     1     149.127 170.609 193.743  0.00  0.00    +0.060 HD
BRANCH  65  88
ATOM     88  C   UNL     1     143.928 170.095 189.378  0.00  0.00    -0.060 C 
ATOM     89  H   UNL     1     144.076 169.034 189.609  0.00  0.00    +0.023 HD
ATOM     90  H   UNL     1     143.321 170.160 188.471  0.00  0.00    +0.023 HD
ATOM     91  H   UNL     1     143.344 170.536 190.195  0.00  0.00    +0.023 HD
ENDBRANCH  65  88
BRANCH  73  92
ATOM     92  C   UNL     1     150.024 170.320 191.841  0.00  0.00    -0.026 C 
ATOM     93  H   UNL     1     149.399 169.639 191.249  0.00  0.00    +0.029 HD
ATOM     94  H   UNL     1     150.503 170.981 191.117  0.00  0.00    +0.029 HD
BRANCH  92  95
ATOM     95  C   UNL     1     151.109 169.504 192.560  0.00  0.00    -0.045 C 
ATOM     96  H   UNL     1     152.096 169.918 192.325  0.00  0.00    +0.027 HD
ATOM     97  H   UNL     1     150.969 169.619 193.636  0.00  0.00    +0.027 HD
BRANCH  95  98
ATOM     98  C   UNL     1     151.103 168.015 192.154  0.00  0.00    -0.025 C 
ATOM     99  H   UNL     1     152.156 167.700 192.124  0.00  0.00    +0.034 HD
BRANCH  98 100
ATOM    100  C   UNL     1     150.531 167.757 190.760  0.00  0.00    -0.059 C 
ATOM    101  H   UNL     1     150.708 168.612 190.101  0.00  0.00    +0.024 HD
ATOM    102  H   UNL     1     149.455 167.575 190.793  0.00  0.00    +0.024 HD
ATOM    103  H   UNL     1     151.000 166.885 190.295  0.00  0.00    +0.024 HD
ENDBRANCH  98 100
BRANCH  98 104
ATOM    104  C   UNL     1     150.457 167.100 193.179  0.00  0.00    -0.080 C 
ATOM    105  C   UNL     1     150.991 166.135 193.961  0.00  0.00    -0.048 C 
ATOM    106  H   UNL     1     149.388 167.296 193.271  0.00  0.00    +0.058 HD
BRANCH 105 107
ATOM    107  C   UNL     1     152.468 165.848 194.026  0.00  0.00    -0.041 C 
ATOM    108  H   UNL     1     152.907 166.106 194.991  0.00  0.00    +0.028 HD
ATOM    109  H   UNL     1     152.662 164.780 193.883  0.00  0.00    +0.028 HD
ATOM    110  H   UNL     1     152.993 166.402 193.237  0.00  0.00    +0.028 HD
ENDBRANCH 105 107
BRANCH 105 111
ATOM    111  C   UNL     1     150.148 165.281 194.907  0.00  0.00    +0.073 C 
ATOM    112  H   UNL     1     149.194 165.050 194.422  0.00  0.00    +0.064 HD
BRANCH 111 113
ATOM    113  C   UNL     1     149.876 165.964 196.248  0.00  0.00    -0.035 C 
ATOM    114  H   UNL     1     149.921 167.054 196.141  0.00  0.00    +0.026 HD
ATOM    115  H   UNL     1     148.873 165.722 196.619  0.00  0.00    +0.026 HD
ATOM    116  H   UNL     1     150.608 165.665 197.005  0.00  0.00    +0.026 HD
ENDBRANCH 111 113
BRANCH 111 117
ATOM    117  O   UNL     1     150.782 164.032 195.185  0.00  0.00    -0.388 OA
ATOM    118  H   UNL     1     151.118 163.688 194.338  0.00  0.00    +0.210 HD
ENDBRANCH 111 117
ENDBRANCH 105 111
ENDBRANCH  98 104
ENDBRANCH  95  98
ENDBRANCH  92  95
ENDBRANCH  73  92
ENDBRANCH  61  64
ENDBRANCH   1  61
TORSDOF 27
ENDMDL
MODEL 9
REMARK VINA RESULT:      -6.8      1.669      2.200
REMARK  Name = Bistramide A_conf1
REMARK  27 active torsions:
REMARK  status: ('A' for Active; 'I' for Inactive)
REMARK    1  A    between atoms: C_1  and  C_2
REMARK    2  A    between atoms: C_3  and  C_4
REMARK    3  A    between atoms: C_4  and  C_6
REMARK    4  A    between atoms: C_6  and  C_7
REMARK    5  A    between atoms: C_10  and  C_50
REMARK    6  A    between atoms: C_11  and  C_13
REMARK    7  A    between atoms: C_13  and  C_14
REMARK    8  A    between atoms: N_16  and  C_17
REMARK    9  A    between atoms: C_17  and  C_18
REMARK   10  A    between atoms: C_18  and  C_19
REMARK   11  A    between atoms: C_18  and  O_49
REMARK   12  A    between atoms: C_19  and  C_20
REMARK   13  A    between atoms: C_19  and  C_21
REMARK   14  A    between atoms: N_23  and  C_24
REMARK   15  A    between atoms: C_24  and  C_25
REMARK   16  A    between atoms: C_25  and  C_26
REMARK   17  A    between atoms: C_26  and  C_27
REMARK   18  A    between atoms: C_28  and  C_48
REMARK   19  A    between atoms: C_36  and  C_38
REMARK   20  A    between atoms: C_38  and  C_39
REMARK   21  A    between atoms: C_39  and  C_40
REMARK   22  A    between atoms: C_40  and  C_41
REMARK   23  A    between atoms: C_40  and  C_42
REMARK   24  A    between atoms: C_43  and  C_44
REMARK   25  A    between atoms: C_43  and  C_45
REMARK   26  A    between atoms: C_45  and  C_46
REMARK   27  A    between atoms: C_45  and  O_47
REMARK                            x       y       z     vdW  Elec       q    Type
REMARK                         _______ _______ _______ _____ _____    ______ ____
ROOT
ATOM      1  C   UNL     1     148.532 167.195 190.527  0.00  0.00    -0.035 C 
ATOM      2  H   UNL     1     148.950 166.249 190.896  0.00  0.00    +0.028 HD
ATOM      3  H   UNL     1     148.607 167.153 189.434  0.00  0.00    +0.028 HD
ENDROOT
BRANCH   1   4
ATOM      4  C   UNL     1     149.366 168.342 191.090  0.00  0.00    +0.012 C 
ATOM      5  H   UNL     1     149.924 168.042 191.984  0.00  0.00    +0.046 HD
ATOM      6  H   UNL     1     150.108 168.675 190.350  0.00  0.00    +0.046 HD
BRANCH   4   9
ATOM      7  C   UNL     1     149.106 170.710 191.719  0.00  0.00    +0.218 C 
ATOM      8  O   UNL     1     150.269 170.996 191.445  0.00  0.00    -0.275 OA
ATOM      9  N   UNL     1     148.558 169.472 191.489  0.00  0.00    -0.315 N 
ATOM     10  H   UNL     1     147.608 169.316 191.831  0.00  0.00    +0.149 HD
BRANCH   7  11
ATOM     11  C   UNL     1     148.169 171.720 192.374  0.00  0.00    +0.060 C 
ATOM     12  H   UNL     1     147.323 171.139 192.766  0.00  0.00    +0.042 HD
BRANCH  11  13
ATOM     13  C   UNL     1     148.866 172.402 193.550  0.00  0.00    -0.052 C 
ATOM     14  H   UNL     1     148.550 173.440 193.677  0.00  0.00    +0.024 HD
ATOM     15  H   UNL     1     148.653 171.865 194.480  0.00  0.00    +0.024 HD
ATOM     16  H   UNL     1     149.951 172.408 193.405  0.00  0.00    +0.024 HD
ENDBRANCH  11  13
BRANCH  11  17
ATOM     17  C   UNL     1     147.609 172.725 191.343  0.00  0.00    +0.081 C 
ATOM     18  H   UNL     1     147.154 173.555 191.888  0.00  0.00    +0.062 HD
BRANCH  17  19
ATOM     19  C   UNL     1     146.568 172.077 190.401  0.00  0.00    +0.038 C 
ATOM     20  H   UNL     1     146.411 172.693 189.511  0.00  0.00    +0.049 HD
ATOM     21  H   UNL     1     146.903 171.082 190.086  0.00  0.00    +0.049 HD
BRANCH  19  24
ATOM     22  C   UNL     1     144.064 171.973 190.274  0.00  0.00    +0.216 C 
ATOM     23  O   UNL     1     144.001 172.426 189.136  0.00  0.00    -0.276 OA
ATOM     24  N   UNL     1     145.245 171.865 190.977  0.00  0.00    -0.313 N 
ATOM     25  H   UNL     1     145.206 171.470 191.908  0.00  0.00    +0.149 HD
BRANCH  22  26
ATOM     26  C   UNL     1     142.877 171.393 191.016  0.00  0.00    +0.050 C 
ATOM     27  H   UNL     1     142.475 170.614 190.351  0.00  0.00    +0.038 HD
ATOM     28  H   UNL     1     143.231 170.921 191.939  0.00  0.00    +0.038 HD
BRANCH  26  33
ATOM     29  C   UNL     1     140.682 173.436 193.240  0.00  0.00    +0.066 C 
ATOM     30  C   UNL     1     139.307 173.235 192.590  0.00  0.00    -0.026 C 
ATOM     31  C   UNL     1     139.394 173.124 191.070  0.00  0.00    -0.046 C 
ATOM     32  C   UNL     1     140.451 172.100 190.637  0.00  0.00    -0.017 C 
ATOM     33  C   UNL     1     141.797 172.436 191.324  0.00  0.00    +0.070 C 
ATOM     34  O   UNL     1     141.631 172.476 192.749  0.00  0.00    -0.372 OA
ATOM     35  H   UNL     1     140.577 173.207 194.307  0.00  0.00    +0.060 HD
ATOM     36  H   UNL     1     138.611 174.034 192.868  0.00  0.00    +0.029 HD
ATOM     37  H   UNL     1     138.875 172.303 192.979  0.00  0.00    +0.029 HD
ATOM     38  H   UNL     1     139.653 174.105 190.650  0.00  0.00    +0.027 HD
ATOM     39  H   UNL     1     138.409 172.863 190.660  0.00  0.00    +0.027 HD
ATOM     40  H   UNL     1     140.578 172.187 189.549  0.00  0.00    +0.032 HD
ATOM     41  H   UNL     1     142.116 173.428 190.977  0.00  0.00    +0.060 HD
BRANCH  32  42
ATOM     42  C   UNL     1     139.963 170.669 190.928  0.00  0.00    -0.060 C 
ATOM     43  H   UNL     1     139.627 170.158 190.018  0.00  0.00    +0.023 HD
ATOM     44  H   UNL     1     139.127 170.680 191.634  0.00  0.00    +0.023 HD
ATOM     45  H   UNL     1     140.765 170.073 191.380  0.00  0.00    +0.023 HD
ENDBRANCH  32  42
BRANCH  29  46
ATOM     46  C   UNL     1     141.218 174.868 193.111  0.00  0.00    +0.036 C 
ATOM     47  H   UNL     1     140.427 175.559 192.798  0.00  0.00    +0.037 HD
ATOM     48  H   UNL     1     141.997 174.907 192.334  0.00  0.00    +0.037 HD
BRANCH  46  49
ATOM     49  C   UNL     1     141.837 175.344 194.411  0.00  0.00    +0.158 C 
ATOM     50  O   UNL     1     143.022 175.649 194.502  0.00  0.00    -0.293 OA
BRANCH  49  52
ATOM     51  C   UNL     1     139.783 176.158 195.497  0.00  0.00    -0.084 C 
ATOM     52  C   UNL     1     140.923 175.458 195.586  0.00  0.00    -0.023 C 
ATOM     53  H   UNL     1     139.517 176.644 194.557  0.00  0.00    +0.057 HD
ATOM     54  H   UNL     1     141.224 174.964 196.501  0.00  0.00    +0.065 HD
BRANCH  51  55
ATOM     55  C   UNL     1     138.807 176.328 196.616  0.00  0.00    -0.046 C 
ATOM     56  H   UNL     1     139.304 176.146 197.574  0.00  0.00    +0.027 HD
ATOM     57  H   UNL     1     137.955 175.645 196.537  0.00  0.00    +0.027 HD
ATOM     58  H   UNL     1     138.422 177.353 196.620  0.00  0.00    +0.027 HD
ENDBRANCH  51  55
ENDBRANCH  49  52
ENDBRANCH  46  49
ENDBRANCH  29  46
ENDBRANCH  26  33
ENDBRANCH  22  26
ENDBRANCH  19  24
ENDBRANCH  17  19
BRANCH  17  59
ATOM     59  O   UNL     1     148.700 173.263 190.585  0.00  0.00    -0.390 OA
ATOM     60  H   UNL     1     149.496 173.182 191.159  0.00  0.00    +0.210 HD
ENDBRANCH  17  59
ENDBRANCH  11  17
ENDBRANCH   7  11
ENDBRANCH   4   9
ENDBRANCH   1   4
BRANCH   1  61
ATOM     61  C   UNL     1     147.058 167.294 190.946  0.00  0.00    -0.025 C 
ATOM     62  H   UNL     1     146.873 168.334 191.248  0.00  0.00    +0.029 HD
ATOM     63  H   UNL     1     146.423 167.088 190.078  0.00  0.00    +0.029 HD
BRANCH  61  64
ATOM     64  C   UNL     1     146.705 166.365 192.125  0.00  0.00    +0.065 C 
ATOM     65  C   UNL     1     145.210 166.476 192.510  0.00  0.00    -0.017 C 
ATOM     66  C   UNL     1     144.978 166.055 193.971  0.00  0.00    -0.043 C 
ATOM     67  C   UNL     1     146.096 165.135 194.447  0.00  0.00    +0.002 C 
ATOM     68  C   UNL     1     147.475 165.830 194.339  0.00  0.00    +0.171 C 
ATOM     69  O   UNL     1     147.502 166.761 193.247  0.00  0.00    -0.345 OA
ATOM     70  C   UNL     1     147.755 166.642 195.624  0.00  0.00    +0.002 C 
ATOM     71  C   UNL     1     148.421 165.795 196.688  0.00  0.00    -0.046 C 
ATOM     72  C   UNL     1     149.711 165.171 196.163  0.00  0.00    -0.026 C 
ATOM     73  C   UNL     1     149.753 165.011 194.637  0.00  0.00    +0.062 C 
ATOM     74  O   UNL     1     148.433 164.785 194.133  0.00  0.00    -0.345 OA
ATOM     75  H   UNL     1     146.953 165.332 191.863  0.00  0.00    +0.060 HD
ATOM     76  H   UNL     1     144.890 167.524 192.418  0.00  0.00    +0.032 HD
ATOM     77  H   UNL     1     144.956 166.954 194.602  0.00  0.00    +0.027 HD
ATOM     78  H   UNL     1     144.007 165.564 194.099  0.00  0.00    +0.027 HD
ATOM     79  H   UNL     1     146.088 164.219 193.842  0.00  0.00    +0.032 HD
ATOM     80  H   UNL     1     145.908 164.800 195.473  0.00  0.00    +0.032 HD
ATOM     81  H   UNL     1     146.831 167.085 196.015  0.00  0.00    +0.032 HD
ATOM     82  H   UNL     1     148.398 167.503 195.407  0.00  0.00    +0.032 HD
ATOM     83  H   UNL     1     147.738 164.998 197.005  0.00  0.00    +0.027 HD
ATOM     84  H   UNL     1     148.636 166.395 197.581  0.00  0.00    +0.027 HD
ATOM     85  H   UNL     1     149.803 164.176 196.622  0.00  0.00    +0.029 HD
ATOM     86  H   UNL     1     150.573 165.733 196.536  0.00  0.00    +0.029 HD
ATOM     87  H   UNL     1     150.304 164.085 194.437  0.00  0.00    +0.060 HD
BRANCH  65  88
ATOM     88  C   UNL     1     144.333 165.646 191.566  0.00  0.00    -0.060 C 
ATOM     89  H   UNL     1     144.930 165.188 190.769  0.00  0.00    +0.023 HD
ATOM     90  H   UNL     1     143.553 166.252 191.097  0.00  0.00    +0.023 HD
ATOM     91  H   UNL     1     143.832 164.837 192.113  0.00  0.00    +0.023 HD
ENDBRANCH  65  88
BRANCH  73  92
ATOM     92  C   UNL     1     150.482 166.119 193.855  0.00  0.00    -0.026 C 
ATOM     93  H   UNL     1     150.578 165.781 192.815  0.00  0.00    +0.029 HD
ATOM     94  H   UNL     1     149.876 167.025 193.814  0.00  0.00    +0.029 HD
BRANCH  92  95
ATOM     95  C   UNL     1     151.875 166.478 194.394  0.00  0.00    -0.045 C 
ATOM     96  H   UNL     1     151.851 167.479 194.837  0.00  0.00    +0.027 HD
ATOM     97  H   UNL     1     152.122 165.784 195.200  0.00  0.00    +0.027 HD
BRANCH  95  98
ATOM     98  C   UNL     1     152.961 166.464 193.297  0.00  0.00    -0.025 C 
ATOM     99  H   UNL     1     153.368 165.443 193.280  0.00  0.00    +0.034 HD
BRANCH  98 100
ATOM    100  C   UNL     1     154.138 167.398 193.580  0.00  0.00    -0.059 C 
ATOM    101  H   UNL     1     154.263 168.125 192.773  0.00  0.00    +0.024 HD
ATOM    102  H   UNL     1     155.074 166.846 193.684  0.00  0.00    +0.024 HD
ATOM    103  H   UNL     1     153.981 167.962 194.505  0.00  0.00    +0.024 HD
ENDBRANCH  98 100
BRANCH  98 104
ATOM    104  C   UNL     1     152.423 166.687 191.895  0.00  0.00    -0.080 C 
ATOM    105  C   UNL     1     152.729 166.081 190.725  0.00  0.00    -0.048 C 
ATOM    106  H   UNL     1     151.660 167.466 191.880  0.00  0.00    +0.058 HD
BRANCH 105 107
ATOM    107  C   UNL     1     153.667 164.909 190.624  0.00  0.00    -0.041 C 
ATOM    108  H   UNL     1     153.145 163.953 190.550  0.00  0.00    +0.028 HD
ATOM    109  H   UNL     1     154.286 164.984 189.723  0.00  0.00    +0.028 HD
ATOM    110  H   UNL     1     154.332 164.884 191.497  0.00  0.00    +0.028 HD
ENDBRANCH 105 107
BRANCH 105 111
ATOM    111  C   UNL     1     152.098 166.492 189.396  0.00  0.00    +0.073 C 
ATOM    112  H   UNL     1     151.008 166.465 189.496  0.00  0.00    +0.064 HD
BRANCH 111 113
ATOM    113  C   UNL     1     152.516 165.593 188.232  0.00  0.00    -0.035 C 
ATOM    114  H   UNL     1     151.744 165.588 187.454  0.00  0.00    +0.026 HD
ATOM    115  H   UNL     1     153.438 165.954 187.762  0.00  0.00    +0.026 HD
ATOM    116  H   UNL     1     152.675 164.560 188.560  0.00  0.00    +0.026 HD
ENDBRANCH 111 113
BRANCH 111 117
ATOM    117  O   UNL     1     152.446 167.833 189.047  0.00  0.00    -0.388 OA
ATOM    118  H   UNL     1     153.376 167.961 189.304  0.00  0.00    +0.210 HD
ENDBRANCH 111 117
ENDBRANCH 105 111
ENDBRANCH  98 104
ENDBRANCH  95  98
ENDBRANCH  92  95
ENDBRANCH  73  92
ENDBRANCH  61  64
ENDBRANCH   1  61
TORSDOF 27
ENDMDL
MODEL 10
REMARK VINA RESULT:      -6.7      2.493      5.983
REMARK  Name = Bistramide A_conf1
REMARK  27 active torsions:
REMARK  status: ('A' for Active; 'I' for Inactive)
REMARK    1  A    between atoms: C_1  and  C_2
REMARK    2  A    between atoms: C_3  and  C_4
REMARK    3  A    between atoms: C_4  and  C_6
REMARK    4  A    between atoms: C_6  and  C_7
REMARK    5  A    between atoms: C_10  and  C_50
REMARK    6  A    between atoms: C_11  and  C_13
REMARK    7  A    between atoms: C_13  and  C_14
REMARK    8  A    between atoms: N_16  and  C_17
REMARK    9  A    between atoms: C_17  and  C_18
REMARK   10  A    between atoms: C_18  and  C_19
REMARK   11  A    between atoms: C_18  and  O_49
REMARK   12  A    between atoms: C_19  and  C_20
REMARK   13  A    between atoms: C_19  and  C_21
REMARK   14  A    between atoms: N_23  and  C_24
REMARK   15  A    between atoms: C_24  and  C_25
REMARK   16  A    between atoms: C_25  and  C_26
REMARK   17  A    between atoms: C_26  and  C_27
REMARK   18  A    between atoms: C_28  and  C_48
REMARK   19  A    between atoms: C_36  and  C_38
REMARK   20  A    between atoms: C_38  and  C_39
REMARK   21  A    between atoms: C_39  and  C_40
REMARK   22  A    between atoms: C_40  and  C_41
REMARK   23  A    between atoms: C_40  and  C_42
REMARK   24  A    between atoms: C_43  and  C_44
REMARK   25  A    between atoms: C_43  and  C_45
REMARK   26  A    between atoms: C_45  and  C_46
REMARK   27  A    between atoms: C_45  and  O_47
REMARK                            x       y       z     vdW  Elec       q    Type
REMARK                         _______ _______ _______ _____ _____    ______ ____
ROOT
ATOM      1  C   UNL     1     146.792 165.664 195.638  0.00  0.00    -0.035 C 
ATOM      2  H   UNL     1     146.660 164.772 196.266  0.00  0.00    +0.028 HD
ATOM      3  H   UNL     1     145.968 166.338 195.895  0.00  0.00    +0.028 HD
ENDROOT
BRANCH   1   4
ATOM      4  C   UNL     1     146.716 165.237 194.174  0.00  0.00    +0.012 C 
ATOM      5  H   UNL     1     147.233 165.944 193.515  0.00  0.00    +0.046 HD
ATOM      6  H   UNL     1     147.202 164.261 194.035  0.00  0.00    +0.046 HD
BRANCH   4   9
ATOM      7  C   UNL     1     144.650 166.288 193.342  0.00  0.00    +0.218 C 
ATOM      8  O   UNL     1     145.155 167.405 193.253  0.00  0.00    -0.275 OA
ATOM      9  N   UNL     1     145.357 165.163 193.689  0.00  0.00    -0.315 N 
ATOM     10  H   UNL     1     144.824 164.302 193.814  0.00  0.00    +0.149 HD
BRANCH   7  11
ATOM     11  C   UNL     1     143.161 166.064 193.095  0.00  0.00    +0.060 C 
ATOM     12  H   UNL     1     143.005 164.977 193.141  0.00  0.00    +0.042 HD
BRANCH  11  13
ATOM     13  C   UNL     1     142.338 166.711 194.207  0.00  0.00    -0.052 C 
ATOM     14  H   UNL     1     142.870 167.529 194.699  0.00  0.00    +0.024 HD
ATOM     15  H   UNL     1     141.400 167.108 193.803  0.00  0.00    +0.024 HD
ATOM     16  H   UNL     1     142.088 165.976 194.979  0.00  0.00    +0.024 HD
ENDBRANCH  11  13
BRANCH  11  17
ATOM     17  C   UNL     1     142.743 166.538 191.685  0.00  0.00    +0.081 C 
ATOM     18  H   UNL     1     143.643 166.615 191.070  0.00  0.00    +0.062 HD
BRANCH  17  19
ATOM     19  C   UNL     1     142.008 167.897 191.719  0.00  0.00    +0.038 C 
ATOM     20  H   UNL     1     141.295 167.975 190.893  0.00  0.00    +0.049 HD
ATOM     21  H   UNL     1     141.466 168.017 192.665  0.00  0.00    +0.049 HD
BRANCH  19  24
ATOM     22  C   UNL     1     143.120 169.756 190.451  0.00  0.00    +0.216 C 
ATOM     23  O   UNL     1     142.797 169.332 189.346  0.00  0.00    -0.276 OA
ATOM     24  N   UNL     1     142.860 169.076 191.622  0.00  0.00    -0.313 N 
ATOM     25  H   UNL     1     143.154 169.504 192.491  0.00  0.00    +0.149 HD
BRANCH  22  26
ATOM     26  C   UNL     1     143.760 171.110 190.679  0.00  0.00    +0.050 C 
ATOM     27  H   UNL     1     144.527 170.940 191.448  0.00  0.00    +0.038 HD
ATOM     28  H   UNL     1     144.252 171.430 189.754  0.00  0.00    +0.038 HD
BRANCH  26  33
ATOM     29  C   UNL     1     140.363 172.454 191.454  0.00  0.00    +0.066 C 
ATOM     30  C   UNL     1     140.398 173.814 190.745  0.00  0.00    -0.026 C 
ATOM     31  C   UNL     1     141.782 174.458 190.792  0.00  0.00    -0.046 C 
ATOM     32  C   UNL     1     142.875 173.481 190.336  0.00  0.00    -0.017 C 
ATOM     33  C   UNL     1     142.760 172.171 191.152  0.00  0.00    +0.070 C 
ATOM     34  O   UNL     1     141.444 171.615 191.015  0.00  0.00    -0.372 OA
ATOM     35  H   UNL     1     139.454 171.936 191.125  0.00  0.00    +0.060 HD
ATOM     36  H   UNL     1     139.652 174.501 191.159  0.00  0.00    +0.029 HD
ATOM     37  H   UNL     1     140.125 173.662 189.693  0.00  0.00    +0.029 HD
ATOM     38  H   UNL     1     141.996 174.781 191.820  0.00  0.00    +0.027 HD
ATOM     39  H   UNL     1     141.789 175.366 190.174  0.00  0.00    +0.027 HD
ATOM     40  H   UNL     1     143.848 173.946 190.547  0.00  0.00    +0.032 HD
ATOM     41  H   UNL     1     142.934 172.414 192.208  0.00  0.00    +0.060 HD
BRANCH  32  42
ATOM     42  C   UNL     1     142.794 173.258 188.815  0.00  0.00    -0.060 C 
ATOM     43  H   UNL     1     143.203 174.107 188.254  0.00  0.00    +0.023 HD
ATOM     44  H   UNL     1     141.757 173.115 188.497  0.00  0.00    +0.023 HD
ATOM     45  H   UNL     1     143.350 172.357 188.529  0.00  0.00    +0.023 HD
ENDBRANCH  32  42
BRANCH  29  46
ATOM     46  C   UNL     1     140.324 172.559 192.984  0.00  0.00    +0.036 C 
ATOM     47  H   UNL     1     141.316 172.790 193.389  0.00  0.00    +0.037 HD
ATOM     48  H   UNL     1     140.022 171.594 193.418  0.00  0.00    +0.037 HD
BRANCH  46  49
ATOM     49  C   UNL     1     139.323 173.604 193.439  0.00  0.00    +0.158 C 
ATOM     50  O   UNL     1     138.121 173.509 193.209  0.00  0.00    -0.293 OA
BRANCH  49  52
ATOM     51  C   UNL     1     141.183 174.869 194.442  0.00  0.00    -0.084 C 
ATOM     52  C   UNL     1     139.865 174.756 194.219  0.00  0.00    -0.023 C 
ATOM     53  H   UNL     1     141.865 174.115 194.047  0.00  0.00    +0.057 HD
ATOM     54  H   UNL     1     139.155 175.481 194.596  0.00  0.00    +0.065 HD
BRANCH  51  55
ATOM     55  C   UNL     1     141.818 175.983 195.208  0.00  0.00    -0.046 C 
ATOM     56  H   UNL     1     142.779 176.245 194.755  0.00  0.00    +0.027 HD
ATOM     57  H   UNL     1     141.993 175.724 196.258  0.00  0.00    +0.027 HD
ATOM     58  H   UNL     1     141.174 176.868 195.180  0.00  0.00    +0.027 HD
ENDBRANCH  51  55
ENDBRANCH  49  52
ENDBRANCH  46  49
ENDBRANCH  29  46
ENDBRANCH  26  33
ENDBRANCH  22  26
ENDBRANCH  19  24
ENDBRANCH  17  19
BRANCH  17  59
ATOM     59  O   UNL     1     141.909 165.535 191.092  0.00  0.00    -0.390 OA
ATOM     60  H   UNL     1     141.756 164.860 191.791  0.00  0.00    +0.210 HD
ENDBRANCH  17  59
ENDBRANCH  11  17
ENDBRANCH   7  11
ENDBRANCH   4   9
ENDBRANCH   1   4
BRANCH   1  61
ATOM     61  C   UNL     1     148.134 166.327 195.977  0.00  0.00    -0.025 C 
ATOM     62  H   UNL     1     147.997 167.412 195.880  0.00  0.00    +0.029 HD
ATOM     63  H   UNL     1     148.383 166.121 197.023  0.00  0.00    +0.029 HD
BRANCH  61  64
ATOM     64  C   UNL     1     149.277 165.888 195.038  0.00  0.00    +0.065 C 
ATOM     65  C   UNL     1     150.585 165.617 195.820  0.00  0.00    -0.017 C 
ATOM     66  C   UNL     1     151.817 165.763 194.911  0.00  0.00    -0.043 C 
ATOM     67  C   UNL     1     151.433 165.561 193.450  0.00  0.00    +0.002 C 
ATOM     68  C   UNL     1     150.360 166.586 193.008  0.00  0.00    +0.171 C 
ATOM     69  O   UNL     1     149.507 166.948 194.104  0.00  0.00    -0.345 OA
ATOM     70  C   UNL     1     151.043 167.886 192.527  0.00  0.00    +0.002 C 
ATOM     71  C   UNL     1     151.391 167.823 191.054  0.00  0.00    -0.046 C 
ATOM     72  C   UNL     1     150.152 167.531 190.212  0.00  0.00    -0.026 C 
ATOM     73  C   UNL     1     149.036 166.800 190.971  0.00  0.00    +0.062 C 
ATOM     74  O   UNL     1     149.603 165.949 191.971  0.00  0.00    -0.345 OA
ATOM     75  H   UNL     1     148.972 164.992 194.487  0.00  0.00    +0.060 HD
ATOM     76  H   UNL     1     150.684 166.358 196.626  0.00  0.00    +0.032 HD
ATOM     77  H   UNL     1     152.237 166.771 195.038  0.00  0.00    +0.027 HD
ATOM     78  H   UNL     1     152.610 165.062 195.192  0.00  0.00    +0.027 HD
ATOM     79  H   UNL     1     151.054 164.539 193.319  0.00  0.00    +0.032 HD
ATOM     80  H   UNL     1     152.317 165.621 192.808  0.00  0.00    +0.032 HD
ATOM     81  H   UNL     1     151.941 168.097 193.119  0.00  0.00    +0.032 HD
ATOM     82  H   UNL     1     150.395 168.752 192.698  0.00  0.00    +0.032 HD
ATOM     83  H   UNL     1     152.135 167.037 190.884  0.00  0.00    +0.027 HD
ATOM     84  H   UNL     1     151.849 168.763 190.725  0.00  0.00    +0.027 HD
ATOM     85  H   UNL     1     150.471 166.903 189.368  0.00  0.00    +0.029 HD
ATOM     86  H   UNL     1     149.790 168.456 189.751  0.00  0.00    +0.029 HD
ATOM     87  H   UNL     1     148.560 166.126 190.250  0.00  0.00    +0.060 HD
BRANCH  65  88
ATOM     88  C   UNL     1     150.561 164.231 196.475  0.00  0.00    -0.060 C 
ATOM     89  H   UNL     1     151.569 163.805 196.538  0.00  0.00    +0.023 HD
ATOM     90  H   UNL     1     149.934 163.529 195.919  0.00  0.00    +0.023 HD
ATOM     91  H   UNL     1     150.160 164.291 197.494  0.00  0.00    +0.023 HD
ENDBRANCH  65  88
BRANCH  73  92
ATOM     92  C   UNL     1     147.909 167.680 191.540  0.00  0.00    -0.026 C 
ATOM     93  H   UNL     1     147.364 167.081 192.281  0.00  0.00    +0.029 HD
ATOM     94  H   UNL     1     148.321 168.525 192.093  0.00  0.00    +0.029 HD
BRANCH  92  95
ATOM     95  C   UNL     1     146.914 168.208 190.496  0.00  0.00    -0.045 C 
ATOM     96  H   UNL     1     147.170 167.807 189.509  0.00  0.00    +0.027 HD
ATOM     97  H   UNL     1     145.922 167.827 190.742  0.00  0.00    +0.027 HD
BRANCH  95  98
ATOM     98  C   UNL     1     146.909 169.749 190.401  0.00  0.00    -0.025 C 
ATOM     99  H   UNL     1     145.947 170.079 190.817  0.00  0.00    +0.034 HD
BRANCH  98 100
ATOM    100  C   UNL     1     146.972 170.280 188.969  0.00  0.00    -0.059 C 
ATOM    101  H   UNL     1     146.690 171.337 188.932  0.00  0.00    +0.024 HD
ATOM    102  H   UNL     1     146.302 169.730 188.306  0.00  0.00    +0.024 HD
ATOM    103  H   UNL     1     147.983 170.199 188.561  0.00  0.00    +0.024 HD
ENDBRANCH  98 100
BRANCH  98 104
ATOM    104  C   UNL     1     147.956 170.422 191.271  0.00  0.00    -0.080 C 
ATOM    105  C   UNL     1     147.963 171.640 191.860  0.00  0.00    -0.048 C 
ATOM    106  H   UNL     1     148.821 169.777 191.426  0.00  0.00    +0.058 HD
BRANCH 105 107
ATOM    107  C   UNL     1     146.785 172.576 191.833  0.00  0.00    -0.041 C 
ATOM    108  H   UNL     1     145.831 172.054 191.745  0.00  0.00    +0.028 HD
ATOM    109  H   UNL     1     146.727 173.152 192.763  0.00  0.00    +0.028 HD
ATOM    110  H   UNL     1     146.884 173.281 190.998  0.00  0.00    +0.028 HD
ENDBRANCH 105 107
BRANCH 105 111
ATOM    111  C   UNL     1     149.152 172.156 192.668  0.00  0.00    +0.073 C 
ATOM    112  H   UNL     1     149.494 173.101 192.234  0.00  0.00    +0.064 HD
BRANCH 111 113
ATOM    113  C   UNL     1     150.322 171.172 192.707  0.00  0.00    -0.035 C 
ATOM    114  H   UNL     1     150.333 170.624 193.656  0.00  0.00    +0.026 HD
ATOM    115  H   UNL     1     150.239 170.424 191.910  0.00  0.00    +0.026 HD
ATOM    116  H   UNL     1     151.283 171.687 192.601  0.00  0.00    +0.026 HD
ENDBRANCH 111 113
BRANCH 111 117
ATOM    117  O   UNL     1     148.782 172.433 194.020  0.00  0.00    -0.388 OA
ATOM    118  H   UNL     1     148.446 171.602 194.399  0.00  0.00    +0.210 HD
ENDBRANCH 111 117
ENDBRANCH 105 111
ENDBRANCH  98 104
ENDBRANCH  95  98
ENDBRANCH  92  95
ENDBRANCH  73  92
ENDBRANCH  61  64
ENDBRANCH   1  61
TORSDOF 27
ENDMDL
