MODEL 1
REMARK VINA RESULT:      -7.1      0.000      0.000
REMARK  Name = Cytochalasin B_conf2
REMARK  6 active torsions:
REMARK  status: ('A' for Active; 'I' for Inactive)
REMARK    1  A    between atoms: C_1  and  C_2
REMARK    2  A    between atoms: C_6  and  O_35
REMARK    3  A    between atoms: C_17  and  O_34
REMARK    4  A    between atoms: C_20  and  C_33
REMARK    5  A    between atoms: C_22  and  C_26
REMARK    6  A    between atoms: C_26  and  C_27
REMARK                            x       y       z     vdW  Elec       q    Type
REMARK                         _______ _______ _______ _____ _____    ______ ____
ROOT
ATOM      1  C   UNL     1     151.297 164.662 185.435  0.00  0.00    -0.040 C 
ATOM      2  C   UNL     1     150.083 165.571 185.708  0.00  0.00    -0.050 C 
ATOM      3  C   UNL     1     149.076 165.726 184.567  0.00  0.00    -0.050 C 
ATOM      4  C   UNL     1     147.668 166.163 185.012  0.00  0.00    -0.023 C 
ATOM      5  C   UNL     1     147.555 167.475 185.815  0.00  0.00    +0.074 C 
ATOM      6  C   UNL     1     148.164 167.427 187.185  0.00  0.00    -0.049 C 
ATOM      7  C   UNL     1     147.777 166.580 188.155  0.00  0.00    +0.021 C 
ATOM      8  C   UNL     1     148.539 166.334 189.394  0.00  0.00    +0.333 C 
ATOM      9  O   UNL     1     148.305 165.379 190.119  0.00  0.00    -0.246 OA
ATOM     10  O   UNL     1     149.515 167.250 189.575  0.00  0.00    -0.444 OA
ATOM     11  C   UNL     1     150.516 167.001 190.590  0.00  0.00    +0.202 C 
ATOM     12  C   UNL     1     151.398 165.755 190.276  0.00  0.00    +0.056 C 
ATOM     13  C   UNL     1     151.953 165.727 188.853  0.00  0.00    -0.078 C 
ATOM     14  C   UNL     1     151.785 164.729 187.967  0.00  0.00    -0.087 C 
ATOM     15  C   UNL     1     152.350 164.774 186.568  0.00  0.00    -0.032 C 
ATOM     16  C   UNL     1     152.549 165.637 191.315  0.00  0.00    +0.087 C 
ATOM     17  C   UNL     1     152.133 166.033 192.723  0.00  0.00    -0.045 C 
ATOM     18  C   UNL     1     153.061 166.398 193.626  0.00  0.00    -0.097 C 
ATOM     19  C   UNL     1     150.638 166.005 192.972  0.00  0.00    -0.012 C 
ATOM     20  C   UNL     1     149.902 167.002 192.034  0.00  0.00    +0.033 C 
ATOM     21  C   UNL     1     149.944 168.484 192.469  0.00  0.00    +0.035 C 
ATOM     22  N   UNL     1     151.011 169.045 191.692  0.00  0.00    -0.308 N 
ATOM     23  C   UNL     1     151.357 168.291 190.599  0.00  0.00    +0.258 C 
ATOM     24  O   UNL     1     152.185 168.652 189.779  0.00  0.00    -0.271 OA
ATOM     25  H   UNL     1     150.938 163.624 185.407  0.00  0.00    +0.030 HD
ATOM     26  H   UNL     1     149.558 165.144 186.569  0.00  0.00    +0.027 HD
ATOM     27  H   UNL     1     150.447 166.566 185.989  0.00  0.00    +0.027 HD
ATOM     28  H   UNL     1     148.971 164.769 184.042  0.00  0.00    +0.027 HD
ATOM     29  H   UNL     1     149.461 166.448 183.838  0.00  0.00    +0.027 HD
ATOM     30  H   UNL     1     147.204 165.344 185.578  0.00  0.00    +0.029 HD
ATOM     31  H   UNL     1     147.049 166.258 184.110  0.00  0.00    +0.029 HD
ATOM     32  H   UNL     1     148.009 168.297 185.250  0.00  0.00    +0.064 HD
ATOM     33  H   UNL     1     149.044 168.052 187.326  0.00  0.00    +0.060 HD
ATOM     34  H   UNL     1     146.927 165.920 188.011  0.00  0.00    +0.069 HD
ATOM     35  H   UNL     1     150.767 164.860 190.368  0.00  0.00    +0.042 HD
ATOM     36  H   UNL     1     152.545 166.591 188.551  0.00  0.00    +0.057 HD
ATOM     37  H   UNL     1     151.221 163.841 188.243  0.00  0.00    +0.057 HD
ATOM     38  H   UNL     1     153.070 163.953 186.465  0.00  0.00    +0.031 HD
ATOM     39  H   UNL     1     152.923 165.701 186.432  0.00  0.00    +0.031 HD
ATOM     40  H   UNL     1     153.401 166.251 190.999  0.00  0.00    +0.065 HD
ATOM     41  H   UNL     1     154.117 166.394 193.369  0.00  0.00    +0.054 HD
ATOM     42  H   UNL     1     152.815 166.700 194.638  0.00  0.00    +0.054 HD
ATOM     43  H   UNL     1     150.309 164.997 192.672  0.00  0.00    +0.035 HD
ATOM     44  H   UNL     1     148.854 166.686 192.030  0.00  0.00    +0.037 HD
ATOM     45  H   UNL     1     150.212 168.612 193.520  0.00  0.00    +0.051 HD
ATOM     46  H   UNL     1     151.436 169.951 191.860  0.00  0.00    +0.149 HD
ENDROOT
BRANCH   1  47
ATOM     47  C   UNL     1     151.967 164.958 184.092  0.00  0.00    -0.062 C 
ATOM     48  H   UNL     1     152.771 165.692 184.213  0.00  0.00    +0.023 HD
ATOM     49  H   UNL     1     152.414 164.057 183.661  0.00  0.00    +0.023 HD
ATOM     50  H   UNL     1     151.247 165.359 183.370  0.00  0.00    +0.023 HD
ENDBRANCH   1  47
BRANCH  19  51
ATOM     51  C   UNL     1     150.188 166.119 194.435  0.00  0.00    -0.058 C 
ATOM     52  H   UNL     1     151.055 166.255 195.091  0.00  0.00    +0.024 HD
ATOM     53  H   UNL     1     149.510 166.958 194.612  0.00  0.00    +0.024 HD
ATOM     54  H   UNL     1     149.678 165.203 194.751  0.00  0.00    +0.024 HD
ENDBRANCH  19  51
BRANCH  21  55
ATOM     55  C   UNL     1     148.604 169.197 192.189  0.00  0.00    -0.009 C 
ATOM     56  H   UNL     1     147.875 168.937 192.966  0.00  0.00    +0.033 HD
ATOM     57  H   UNL     1     148.170 168.858 191.240  0.00  0.00    +0.033 HD
BRANCH  55  58
ATOM     58  C   UNL     1     148.747 170.703 192.158  0.00  0.00    -0.046 A 
ATOM     59  C   UNL     1     149.216 171.394 193.284  0.00  0.00    -0.059 A 
ATOM     60  C   UNL     1     149.326 172.784 193.264  0.00  0.00    -0.062 A 
ATOM     61  C   UNL     1     148.967 173.497 192.120  0.00  0.00    -0.062 A 
ATOM     62  C   UNL     1     148.499 172.819 190.997  0.00  0.00    -0.062 A 
ATOM     63  C   UNL     1     148.387 171.428 191.014  0.00  0.00    -0.059 A 
ATOM     64  H   UNL     1     149.497 170.852 194.185  0.00  0.00    +0.062 HD
ATOM     65  H   UNL     1     149.692 173.312 194.140  0.00  0.00    +0.062 HD
ATOM     66  H   UNL     1     149.055 174.580 192.106  0.00  0.00    +0.062 HD
ATOM     67  H   UNL     1     148.221 173.375 190.104  0.00  0.00    +0.062 HD
ATOM     68  H   UNL     1     148.020 170.916 190.128  0.00  0.00    +0.062 HD
ENDBRANCH  55  58
ENDBRANCH  21  55
BRANCH  16  69
ATOM     69  O   UNL     1     153.011 164.285 191.369  0.00  0.00    -0.387 OA
ATOM     70  H   UNL     1     153.758 164.252 191.988  0.00  0.00    +0.210 HD
ENDBRANCH  16  69
BRANCH   5  71
ATOM     71  O   UNL     1     146.174 167.786 185.990  0.00  0.00    -0.388 OA
ATOM     72  H   UNL     1     145.670 167.180 185.422  0.00  0.00    +0.210 HD
ENDBRANCH   5  71
TORSDOF 6
ENDMDL
MODEL 2
REMARK VINA RESULT:      -7.1      4.800      7.444
REMARK  Name = Cytochalasin B_conf2
REMARK  6 active torsions:
REMARK  status: ('A' for Active; 'I' for Inactive)
REMARK    1  A    between atoms: C_1  and  C_2
REMARK    2  A    between atoms: C_6  and  O_35
REMARK    3  A    between atoms: C_17  and  O_34
REMARK    4  A    between atoms: C_20  and  C_33
REMARK    5  A    between atoms: C_22  and  C_26
REMARK    6  A    between atoms: C_26  and  C_27
REMARK                            x       y       z     vdW  Elec       q    Type
REMARK                         _______ _______ _______ _____ _____    ______ ____
ROOT
ATOM      1  C   UNL     1     151.022 167.103 191.857  0.00  0.00    -0.040 C 
ATOM      2  C   UNL     1     150.357 168.488 191.964  0.00  0.00    -0.050 C 
ATOM      3  C   UNL     1     151.284 169.670 192.253  0.00  0.00    -0.050 C 
ATOM      4  C   UNL     1     150.723 171.040 191.832  0.00  0.00    -0.023 C 
ATOM      5  C   UNL     1     149.360 171.459 192.421  0.00  0.00    +0.074 C 
ATOM      6  C   UNL     1     148.195 170.641 191.950  0.00  0.00    -0.049 C 
ATOM      7  C   UNL     1     147.818 170.533 190.664  0.00  0.00    +0.021 C 
ATOM      8  C   UNL     1     146.861 169.528 190.161  0.00  0.00    +0.333 C 
ATOM      9  O   UNL     1     146.744 169.285 188.970  0.00  0.00    -0.246 OA
ATOM     10  O   UNL     1     146.201 168.915 191.167  0.00  0.00    -0.444 OA
ATOM     11  C   UNL     1     145.430 167.728 190.864  0.00  0.00    +0.202 C 
ATOM     12  C   UNL     1     146.316 166.539 190.386  0.00  0.00    +0.056 C 
ATOM     13  C   UNL     1     147.528 166.267 191.274  0.00  0.00    -0.078 C 
ATOM     14  C   UNL     1     148.808 166.232 190.862  0.00  0.00    -0.087 C 
ATOM     15  C   UNL     1     149.962 165.973 191.800  0.00  0.00    -0.032 C 
ATOM     16  C   UNL     1     145.452 165.254 190.231  0.00  0.00    +0.087 C 
ATOM     17  C   UNL     1     144.057 165.527 189.692  0.00  0.00    -0.045 C 
ATOM     18  C   UNL     1     143.066 164.641 189.895  0.00  0.00    -0.097 C 
ATOM     19  C   UNL     1     143.907 166.852 188.968  0.00  0.00    -0.012 C 
ATOM     20  C   UNL     1     144.215 168.040 189.921  0.00  0.00    +0.033 C 
ATOM     21  C   UNL     1     143.074 168.439 190.884  0.00  0.00    +0.035 C 
ATOM     22  N   UNL     1     143.412 167.787 192.115  0.00  0.00    -0.308 N 
ATOM     23  C   UNL     1     144.726 167.399 192.194  0.00  0.00    +0.258 C 
ATOM     24  O   UNL     1     145.213 166.905 193.199  0.00  0.00    -0.271 OA
ATOM     25  H   UNL     1     151.596 167.078 190.921  0.00  0.00    +0.030 HD
ATOM     26  H   UNL     1     149.860 168.673 191.006  0.00  0.00    +0.027 HD
ATOM     27  H   UNL     1     149.590 168.448 192.746  0.00  0.00    +0.027 HD
ATOM     28  H   UNL     1     152.232 169.527 191.722  0.00  0.00    +0.027 HD
ATOM     29  H   UNL     1     151.521 169.693 193.323  0.00  0.00    +0.027 HD
ATOM     30  H   UNL     1     150.679 171.085 190.735  0.00  0.00    +0.029 HD
ATOM     31  H   UNL     1     151.464 171.802 192.107  0.00  0.00    +0.029 HD
ATOM     32  H   UNL     1     149.402 171.425 193.516  0.00  0.00    +0.064 HD
ATOM     33  H   UNL     1     147.722 170.022 192.711  0.00  0.00    +0.060 HD
ATOM     34  H   UNL     1     148.309 171.112 189.889  0.00  0.00    +0.069 HD
ATOM     35  H   UNL     1     146.721 166.793 189.396  0.00  0.00    +0.042 HD
ATOM     36  H   UNL     1     147.320 166.075 192.326  0.00  0.00    +0.057 HD
ATOM     37  H   UNL     1     149.051 166.394 189.814  0.00  0.00    +0.057 HD
ATOM     38  H   UNL     1     150.452 165.042 191.488  0.00  0.00    +0.031 HD
ATOM     39  H   UNL     1     149.579 165.790 192.813  0.00  0.00    +0.031 HD
ATOM     40  H   UNL     1     145.376 164.738 191.197  0.00  0.00    +0.065 HD
ATOM     41  H   UNL     1     143.253 163.711 190.427  0.00  0.00    +0.054 HD
ATOM     42  H   UNL     1     142.052 164.795 189.541  0.00  0.00    +0.054 HD
ATOM     43  H   UNL     1     144.696 166.858 188.200  0.00  0.00    +0.035 HD
ATOM     44  H   UNL     1     144.416 168.897 189.271  0.00  0.00    +0.037 HD
ATOM     45  H   UNL     1     142.100 168.052 190.574  0.00  0.00    +0.051 HD
ATOM     46  H   UNL     1     142.786 167.681 192.906  0.00  0.00    +0.149 HD
ENDROOT
BRANCH   1  47
ATOM     47  C   UNL     1     151.995 166.824 193.006  0.00  0.00    -0.062 C 
ATOM     48  H   UNL     1     152.418 167.757 193.392  0.00  0.00    +0.023 HD
ATOM     49  H   UNL     1     151.493 166.326 193.842  0.00  0.00    +0.023 HD
ATOM     50  H   UNL     1     152.822 166.186 192.677  0.00  0.00    +0.023 HD
ENDBRANCH   1  47
BRANCH  19  51
ATOM     51  C   UNL     1     142.612 167.049 188.169  0.00  0.00    -0.058 C 
ATOM     52  H   UNL     1     142.835 167.450 187.173  0.00  0.00    +0.024 HD
ATOM     53  H   UNL     1     142.050 166.122 188.026  0.00  0.00    +0.024 HD
ATOM     54  H   UNL     1     141.956 167.766 188.672  0.00  0.00    +0.024 HD
ENDBRANCH  19  51
BRANCH  21  55
ATOM     55  C   UNL     1     142.987 169.970 191.059  0.00  0.00    -0.009 C 
ATOM     56  H   UNL     1     143.462 170.470 190.206  0.00  0.00    +0.033 HD
ATOM     57  H   UNL     1     143.541 170.296 191.948  0.00  0.00    +0.033 HD
BRANCH  55  58
ATOM     58  C   UNL     1     141.559 170.459 191.159  0.00  0.00    -0.046 A 
ATOM     59  C   UNL     1     140.519 169.744 190.550  0.00  0.00    -0.059 A 
ATOM     60  C   UNL     1     139.206 170.207 190.623  0.00  0.00    -0.062 A 
ATOM     61  C   UNL     1     138.919 171.389 191.303  0.00  0.00    -0.062 A 
ATOM     62  C   UNL     1     139.946 172.109 191.911  0.00  0.00    -0.062 A 
ATOM     63  C   UNL     1     141.261 171.649 191.839  0.00  0.00    -0.059 A 
ATOM     64  H   UNL     1     140.728 168.820 190.013  0.00  0.00    +0.062 HD
ATOM     65  H   UNL     1     138.406 169.645 190.149  0.00  0.00    +0.062 HD
ATOM     66  H   UNL     1     137.895 171.748 191.360  0.00  0.00    +0.062 HD
ATOM     67  H   UNL     1     139.721 173.031 192.442  0.00  0.00    +0.062 HD
ATOM     68  H   UNL     1     142.049 172.222 192.319  0.00  0.00    +0.062 HD
ENDBRANCH  55  58
ENDBRANCH  21  55
BRANCH  16  69
ATOM     69  O   UNL     1     146.091 164.350 189.328  0.00  0.00    -0.387 OA
ATOM     70  H   UNL     1     146.615 163.725 189.855  0.00  0.00    +0.210 HD
ENDBRANCH  16  69
BRANCH   5  71
ATOM     71  O   UNL     1     149.094 172.808 192.044  0.00  0.00    -0.388 OA
ATOM     72  H   UNL     1     148.440 173.158 192.673  0.00  0.00    +0.210 HD
ENDBRANCH   5  71
TORSDOF 6
ENDMDL
MODEL 3
REMARK VINA RESULT:      -6.9      3.201      7.769
REMARK  Name = Cytochalasin B_conf2
REMARK  6 active torsions:
REMARK  status: ('A' for Active; 'I' for Inactive)
REMARK    1  A    between atoms: C_1  and  C_2
REMARK    2  A    between atoms: C_6  and  O_35
REMARK    3  A    between atoms: C_17  and  O_34
REMARK    4  A    between atoms: C_20  and  C_33
REMARK    5  A    between atoms: C_22  and  C_26
REMARK    6  A    between atoms: C_26  and  C_27
REMARK                            x       y       z     vdW  Elec       q    Type
REMARK                         _______ _______ _______ _____ _____    ______ ____
ROOT
ATOM      1  C   UNL     1     151.399 166.402 193.941  0.00  0.00    -0.040 C 
ATOM      2  C   UNL     1     150.478 166.365 192.705  0.00  0.00    -0.050 C 
ATOM      3  C   UNL     1     149.012 166.734 192.937  0.00  0.00    -0.050 C 
ATOM      4  C   UNL     1     148.266 167.207 191.675  0.00  0.00    -0.023 C 
ATOM      5  C   UNL     1     148.244 166.250 190.466  0.00  0.00    +0.074 C 
ATOM      6  C   UNL     1     149.575 166.036 189.810  0.00  0.00    -0.049 C 
ATOM      7  C   UNL     1     150.314 167.016 189.260  0.00  0.00    +0.021 C 
ATOM      8  C   UNL     1     151.728 166.867 188.866  0.00  0.00    +0.333 C 
ATOM      9  O   UNL     1     152.437 167.832 188.623  0.00  0.00    -0.246 OA
ATOM     10  O   UNL     1     152.115 165.574 188.860  0.00  0.00    -0.444 OA
ATOM     11  C   UNL     1     153.528 165.277 188.759  0.00  0.00    +0.202 C 
ATOM     12  C   UNL     1     154.340 165.775 189.992  0.00  0.00    +0.056 C 
ATOM     13  C   UNL     1     153.732 165.386 191.338  0.00  0.00    -0.078 C 
ATOM     14  C   UNL     1     153.401 166.239 192.323  0.00  0.00    -0.087 C 
ATOM     15  C   UNL     1     152.787 165.786 193.626  0.00  0.00    -0.032 C 
ATOM     16  C   UNL     1     155.814 165.287 189.897  0.00  0.00    +0.087 C 
ATOM     17  C   UNL     1     156.361 165.294 188.478  0.00  0.00    -0.045 C 
ATOM     18  C   UNL     1     157.418 164.528 188.155  0.00  0.00    -0.097 C 
ATOM     19  C   UNL     1     155.603 166.185 187.513  0.00  0.00    -0.012 C 
ATOM     20  C   UNL     1     154.126 165.723 187.378  0.00  0.00    +0.033 C 
ATOM     21  C   UNL     1     153.885 164.513 186.447  0.00  0.00    +0.035 C 
ATOM     22  N   UNL     1     153.813 163.394 187.340  0.00  0.00    -0.308 N 
ATOM     23  C   UNL     1     153.572 163.742 188.646  0.00  0.00    +0.258 C 
ATOM     24  O   UNL     1     153.397 162.919 189.530  0.00  0.00    -0.271 OA
ATOM     25  H   UNL     1     151.549 167.455 194.216  0.00  0.00    +0.030 HD
ATOM     26  H   UNL     1     150.897 167.073 191.981  0.00  0.00    +0.027 HD
ATOM     27  H   UNL     1     150.520 165.362 192.267  0.00  0.00    +0.027 HD
ATOM     28  H   UNL     1     148.952 167.542 193.675  0.00  0.00    +0.027 HD
ATOM     29  H   UNL     1     148.484 165.874 193.363  0.00  0.00    +0.027 HD
ATOM     30  H   UNL     1     148.670 168.181 191.367  0.00  0.00    +0.029 HD
ATOM     31  H   UNL     1     147.228 167.421 191.963  0.00  0.00    +0.029 HD
ATOM     32  H   UNL     1     147.832 165.280 190.766  0.00  0.00    +0.064 HD
ATOM     33  H   UNL     1     149.985 165.033 189.907  0.00  0.00    +0.060 HD
ATOM     34  H   UNL     1     149.933 168.030 189.196  0.00  0.00    +0.069 HD
ATOM     35  H   UNL     1     154.347 166.873 189.974  0.00  0.00    +0.042 HD
ATOM     36  H   UNL     1     153.569 164.321 191.502  0.00  0.00    +0.057 HD
ATOM     37  H   UNL     1     153.573 167.307 192.204  0.00  0.00    +0.057 HD
ATOM     38  H   UNL     1     153.481 166.042 194.437  0.00  0.00    +0.031 HD
ATOM     39  H   UNL     1     152.702 164.691 193.632  0.00  0.00    +0.031 HD
ATOM     40  H   UNL     1     155.900 164.277 190.317  0.00  0.00    +0.065 HD
ATOM     41  H   UNL     1     157.908 163.913 188.907  0.00  0.00    +0.054 HD
ATOM     42  H   UNL     1     157.838 164.489 187.156  0.00  0.00    +0.054 HD
ATOM     43  H   UNL     1     155.575 167.177 187.989  0.00  0.00    +0.035 HD
ATOM     44  H   UNL     1     153.585 166.577 186.959  0.00  0.00    +0.037 HD
ATOM     45  H   UNL     1     154.720 164.327 185.767  0.00  0.00    +0.051 HD
ATOM     46  H   UNL     1     153.850 162.421 187.054  0.00  0.00    +0.149 HD
ENDROOT
BRANCH   1  47
ATOM     47  C   UNL     1     150.793 165.686 195.150  0.00  0.00    -0.062 C 
ATOM     48  H   UNL     1     151.048 166.209 196.078  0.00  0.00    +0.023 HD
ATOM     49  H   UNL     1     149.701 165.651 195.088  0.00  0.00    +0.023 HD
ATOM     50  H   UNL     1     151.162 164.657 195.228  0.00  0.00    +0.023 HD
ENDBRANCH   1  47
BRANCH  19  51
ATOM     51  C   UNL     1     156.273 166.446 186.157  0.00  0.00    -0.058 C 
ATOM     52  H   UNL     1     155.516 166.554 185.372  0.00  0.00    +0.024 HD
ATOM     53  H   UNL     1     156.884 167.353 186.147  0.00  0.00    +0.024 HD
ATOM     54  H   UNL     1     156.916 165.604 185.879  0.00  0.00    +0.024 HD
ENDBRANCH  19  51
BRANCH  21  55
ATOM     55  C   UNL     1     152.584 164.672 185.632  0.00  0.00    -0.009 C 
ATOM     56  H   UNL     1     152.020 165.540 185.997  0.00  0.00    +0.033 HD
ATOM     57  H   UNL     1     151.926 163.805 185.770  0.00  0.00    +0.033 HD
BRANCH  55  58
ATOM     58  C   UNL     1     152.847 164.864 184.155  0.00  0.00    -0.046 A 
ATOM     59  C   UNL     1     154.034 165.470 183.719  0.00  0.00    -0.059 A 
ATOM     60  C   UNL     1     154.267 165.668 182.358  0.00  0.00    -0.062 A 
ATOM     61  C   UNL     1     153.316 165.265 181.421  0.00  0.00    -0.062 A 
ATOM     62  C   UNL     1     152.133 164.664 181.845  0.00  0.00    -0.062 A 
ATOM     63  C   UNL     1     151.896 164.466 183.206  0.00  0.00    -0.059 A 
ATOM     64  H   UNL     1     154.785 165.792 184.439  0.00  0.00    +0.062 HD
ATOM     65  H   UNL     1     155.190 166.136 182.029  0.00  0.00    +0.062 HD
ATOM     66  H   UNL     1     153.500 165.419 180.361  0.00  0.00    +0.062 HD
ATOM     67  H   UNL     1     151.392 164.349 181.113  0.00  0.00    +0.062 HD
ATOM     68  H   UNL     1     150.968 163.994 183.518  0.00  0.00    +0.062 HD
ENDBRANCH  55  58
ENDBRANCH  21  55
BRANCH  16  69
ATOM     69  O   UNL     1     156.653 166.135 190.684  0.00  0.00    -0.387 OA
ATOM     70  H   UNL     1     157.572 165.979 190.411  0.00  0.00    +0.210 HD
ENDBRANCH  16  69
BRANCH   5  71
ATOM     71  O   UNL     1     147.379 166.793 189.469  0.00  0.00    -0.388 OA
ATOM     72  H   UNL     1     147.523 167.754 189.457  0.00  0.00    +0.210 HD
ENDBRANCH   5  71
TORSDOF 6
ENDMDL
MODEL 4
REMARK VINA RESULT:      -6.8      2.721      7.464
REMARK  Name = Cytochalasin B_conf2
REMARK  6 active torsions:
REMARK  status: ('A' for Active; 'I' for Inactive)
REMARK    1  A    between atoms: C_1  and  C_2
REMARK    2  A    between atoms: C_6  and  O_35
REMARK    3  A    between atoms: C_17  and  O_34
REMARK    4  A    between atoms: C_20  and  C_33
REMARK    5  A    between atoms: C_22  and  C_26
REMARK    6  A    between atoms: C_26  and  C_27
REMARK                            x       y       z     vdW  Elec       q    Type
REMARK                         _______ _______ _______ _____ _____    ______ ____
ROOT
ATOM      1  C   UNL     1     149.584 165.513 194.546  0.00  0.00    -0.040 C 
ATOM      2  C   UNL     1     150.412 165.999 193.340  0.00  0.00    -0.050 C 
ATOM      3  C   UNL     1     151.928 165.821 193.439  0.00  0.00    -0.050 C 
ATOM      4  C   UNL     1     152.657 165.798 192.082  0.00  0.00    -0.023 C 
ATOM      5  C   UNL     1     152.464 167.015 191.155  0.00  0.00    +0.074 C 
ATOM      6  C   UNL     1     151.078 167.172 190.604  0.00  0.00    -0.049 C 
ATOM      7  C   UNL     1     150.460 166.254 189.840  0.00  0.00    +0.021 C 
ATOM      8  C   UNL     1     149.019 166.269 189.528  0.00  0.00    +0.333 C 
ATOM      9  O   UNL     1     148.446 165.295 189.063  0.00  0.00    -0.246 OA
ATOM     10  O   UNL     1     148.445 167.446 189.858  0.00  0.00    -0.444 OA
ATOM     11  C   UNL     1     147.000 167.532 189.866  0.00  0.00    +0.202 C 
ATOM     12  C   UNL     1     146.347 166.622 190.950  0.00  0.00    +0.056 C 
ATOM     13  C   UNL     1     146.972 166.758 192.338  0.00  0.00    -0.078 C 
ATOM     14  C   UNL     1     147.484 165.751 193.067  0.00  0.00    -0.087 C 
ATOM     15  C   UNL     1     148.103 165.960 194.428  0.00  0.00    -0.032 C 
ATOM     16  C   UNL     1     144.814 166.880 191.014  0.00  0.00    +0.087 C 
ATOM     17  C   UNL     1     144.189 167.137 189.652  0.00  0.00    -0.045 C 
ATOM     18  C   UNL     1     143.012 167.781 189.557  0.00  0.00    -0.097 C 
ATOM     19  C   UNL     1     145.010 166.643 188.476  0.00  0.00    -0.012 C 
ATOM     20  C   UNL     1     146.392 167.352 188.430  0.00  0.00    +0.033 C 
ATOM     21  C   UNL     1     146.394 168.777 187.831  0.00  0.00    +0.035 C 
ATOM     22  N   UNL     1     146.354 169.637 188.978  0.00  0.00    -0.308 N 
ATOM     23  C   UNL     1     146.723 169.020 190.147  0.00  0.00    +0.258 C 
ATOM     24  O   UNL     1     146.828 169.617 191.206  0.00  0.00    -0.271 OA
ATOM     25  H   UNL     1     149.608 164.415 194.549  0.00  0.00    +0.030 HD
ATOM     26  H   UNL     1     150.059 165.435 192.470  0.00  0.00    +0.027 HD
ATOM     27  H   UNL     1     150.195 167.060 193.172  0.00  0.00    +0.027 HD
ATOM     28  H   UNL     1     152.152 164.875 193.946  0.00  0.00    +0.027 HD
ATOM     29  H   UNL     1     152.348 166.621 194.058  0.00  0.00    +0.027 HD
ATOM     30  H   UNL     1     152.383 164.879 191.547  0.00  0.00    +0.029 HD
ATOM     31  H   UNL     1     153.731 165.687 192.284  0.00  0.00    +0.029 HD
ATOM     32  H   UNL     1     152.746 167.933 191.683  0.00  0.00    +0.064 HD
ATOM     33  H   UNL     1     150.531 168.042 190.961  0.00  0.00    +0.060 HD
ATOM     34  H   UNL     1     150.982 165.360 189.513  0.00  0.00    +0.069 HD
ATOM     35  H   UNL     1     146.501 165.576 190.654  0.00  0.00    +0.042 HD
ATOM     36  H   UNL     1     146.986 167.762 192.763  0.00  0.00    +0.057 HD
ATOM     37  H   UNL     1     147.465 164.733 192.684  0.00  0.00    +0.057 HD
ATOM     38  H   UNL     1     147.505 165.405 195.162  0.00  0.00    +0.031 HD
ATOM     39  H   UNL     1     148.026 167.018 194.709  0.00  0.00    +0.031 HD
ATOM     40  H   UNL     1     144.605 167.728 191.678  0.00  0.00    +0.065 HD
ATOM     41  H   UNL     1     142.484 168.107 190.450  0.00  0.00    +0.054 HD
ATOM     42  H   UNL     1     142.531 167.999 188.610  0.00  0.00    +0.054 HD
ATOM     43  H   UNL     1     145.213 165.582 188.685  0.00  0.00    +0.035 HD
ATOM     44  H   UNL     1     147.027 166.724 187.797  0.00  0.00    +0.037 HD
ATOM     45  H   UNL     1     145.501 168.991 187.239  0.00  0.00    +0.051 HD
ATOM     46  H   UNL     1     146.157 170.632 188.949  0.00  0.00    +0.149 HD
ENDROOT
BRANCH   1  47
ATOM     47  C   UNL     1     150.150 165.994 195.884  0.00  0.00    -0.062 C 
ATOM     48  H   UNL     1     150.761 165.214 196.350  0.00  0.00    +0.023 HD
ATOM     49  H   UNL     1     150.790 166.872 195.754  0.00  0.00    +0.023 HD
ATOM     50  H   UNL     1     149.347 166.260 196.581  0.00  0.00    +0.023 HD
ENDBRANCH   1  47
BRANCH  19  51
ATOM     51  C   UNL     1     144.304 166.623 187.114  0.00  0.00    -0.058 C 
ATOM     52  H   UNL     1     144.747 167.369 186.443  0.00  0.00    +0.024 HD
ATOM     53  H   UNL     1     144.370 165.654 186.611  0.00  0.00    +0.024 HD
ATOM     54  H   UNL     1     143.244 166.872 187.227  0.00  0.00    +0.024 HD
ENDBRANCH  19  51
BRANCH  21  55
ATOM     55  C   UNL     1     147.653 169.032 186.975  0.00  0.00    -0.009 C 
ATOM     56  H   UNL     1     148.539 169.080 187.621  0.00  0.00    +0.033 HD
ATOM     57  H   UNL     1     147.593 170.004 186.469  0.00  0.00    +0.033 HD
BRANCH  55  58
ATOM     58  C   UNL     1     147.877 167.949 185.943  0.00  0.00    -0.046 A 
ATOM     59  C   UNL     1     148.975 167.085 186.048  0.00  0.00    -0.059 A 
ATOM     60  C   UNL     1     149.194 166.101 185.083  0.00  0.00    -0.062 A 
ATOM     61  C   UNL     1     148.321 165.974 184.004  0.00  0.00    -0.062 A 
ATOM     62  C   UNL     1     147.228 166.830 183.889  0.00  0.00    -0.062 A 
ATOM     63  C   UNL     1     147.006 167.816 184.852  0.00  0.00    -0.059 A 
ATOM     64  H   UNL     1     149.667 167.173 186.883  0.00  0.00    +0.062 HD
ATOM     65  H   UNL     1     150.047 165.434 185.174  0.00  0.00    +0.062 HD
ATOM     66  H   UNL     1     148.493 165.207 183.254  0.00  0.00    +0.062 HD
ATOM     67  H   UNL     1     146.546 166.729 183.048  0.00  0.00    +0.062 HD
ATOM     68  H   UNL     1     146.147 168.474 184.747  0.00  0.00    +0.062 HD
ENDBRANCH  55  58
ENDBRANCH  21  55
BRANCH  16  69
ATOM     69  O   UNL     1     144.159 165.741 191.578  0.00  0.00    -0.387 OA
ATOM     70  H   UNL     1     144.834 165.066 191.752  0.00  0.00    +0.210 HD
ENDBRANCH  16  69
BRANCH   5  71
ATOM     71  O   UNL     1     153.337 166.879 190.035  0.00  0.00    -0.388 OA
ATOM     72  H   UNL     1     154.174 166.512 190.367  0.00  0.00    +0.210 HD
ENDBRANCH   5  71
TORSDOF 6
ENDMDL
MODEL 5
REMARK VINA RESULT:      -6.8      3.197      6.539
REMARK  Name = Cytochalasin B_conf2
REMARK  6 active torsions:
REMARK  status: ('A' for Active; 'I' for Inactive)
REMARK    1  A    between atoms: C_1  and  C_2
REMARK    2  A    between atoms: C_6  and  O_35
REMARK    3  A    between atoms: C_17  and  O_34
REMARK    4  A    between atoms: C_20  and  C_33
REMARK    5  A    between atoms: C_22  and  C_26
REMARK    6  A    between atoms: C_26  and  C_27
REMARK                            x       y       z     vdW  Elec       q    Type
REMARK                         _______ _______ _______ _____ _____    ______ ____
ROOT
ATOM      1  C   UNL     1     154.059 166.716 188.306  0.00  0.00    -0.040 C 
ATOM      2  C   UNL     1     153.444 166.349 189.670  0.00  0.00    -0.050 C 
ATOM      3  C   UNL     1     154.422 166.175 190.834  0.00  0.00    -0.050 C 
ATOM      4  C   UNL     1     153.791 166.345 192.228  0.00  0.00    -0.023 C 
ATOM      5  C   UNL     1     152.597 165.435 192.580  0.00  0.00    +0.074 C 
ATOM      6  C   UNL     1     151.350 165.702 191.791  0.00  0.00    -0.049 C 
ATOM      7  C   UNL     1     150.695 166.877 191.787  0.00  0.00    +0.021 C 
ATOM      8  C   UNL     1     149.643 167.236 190.817  0.00  0.00    +0.333 C 
ATOM      9  O   UNL     1     149.262 168.388 190.672  0.00  0.00    -0.246 OA
ATOM     10  O   UNL     1     149.218 166.164 190.115  0.00  0.00    -0.444 OA
ATOM     11  C   UNL     1     148.391 166.386 188.949  0.00  0.00    +0.202 C 
ATOM     12  C   UNL     1     149.139 167.148 187.813  0.00  0.00    +0.056 C 
ATOM     13  C   UNL     1     150.517 166.577 187.482  0.00  0.00    -0.078 C 
ATOM     14  C   UNL     1     151.672 167.264 187.496  0.00  0.00    -0.087 C 
ATOM     15  C   UNL     1     153.004 166.631 187.172  0.00  0.00    -0.032 C 
ATOM     16  C   UNL     1     148.253 167.213 186.537  0.00  0.00    +0.087 C 
ATOM     17  C   UNL     1     146.774 167.405 186.838  0.00  0.00    -0.045 C 
ATOM     18  C   UNL     1     145.847 167.062 185.927  0.00  0.00    -0.097 C 
ATOM     19  C   UNL     1     146.477 167.963 188.216  0.00  0.00    -0.012 C 
ATOM     20  C   UNL     1     146.999 167.007 189.324  0.00  0.00    +0.033 C 
ATOM     21  C   UNL     1     146.103 165.784 189.629  0.00  0.00    +0.035 C 
ATOM     22  N   UNL     1     146.702 164.718 188.880  0.00  0.00    -0.308 N 
ATOM     23  C   UNL     1     147.998 164.966 188.502  0.00  0.00    +0.258 C 
ATOM     24  O   UNL     1     148.692 164.140 187.932  0.00  0.00    -0.271 OA
ATOM     25  H   UNL     1     154.410 167.756 188.365  0.00  0.00    +0.030 HD
ATOM     26  H   UNL     1     152.748 167.153 189.928  0.00  0.00    +0.027 HD
ATOM     27  H   UNL     1     152.870 165.422 189.556  0.00  0.00    +0.027 HD
ATOM     28  H   UNL     1     155.227 166.914 190.746  0.00  0.00    +0.027 HD
ATOM     29  H   UNL     1     154.890 165.186 190.771  0.00  0.00    +0.027 HD
ATOM     30  H   UNL     1     153.505 167.397 192.363  0.00  0.00    +0.029 HD
ATOM     31  H   UNL     1     154.581 166.179 192.973  0.00  0.00    +0.029 HD
ATOM     32  H   UNL     1     152.881 164.384 192.456  0.00  0.00    +0.064 HD
ATOM     33  H   UNL     1     151.053 164.910 191.107  0.00  0.00    +0.060 HD
ATOM     34  H   UNL     1     151.007 167.690 192.435  0.00  0.00    +0.069 HD
ATOM     35  H   UNL     1     149.316 168.178 188.153  0.00  0.00    +0.042 HD
ATOM     36  H   UNL     1     150.545 165.525 187.201  0.00  0.00    +0.057 HD
ATOM     37  H   UNL     1     151.677 168.323 187.748  0.00  0.00    +0.057 HD
ATOM     38  H   UNL     1     153.405 167.122 186.276  0.00  0.00    +0.031 HD
ATOM     39  H   UNL     1     152.855 165.577 186.901  0.00  0.00    +0.031 HD
ATOM     40  H   UNL     1     148.389 166.302 185.941  0.00  0.00    +0.065 HD
ATOM     41  H   UNL     1     146.141 166.665 184.958  0.00  0.00    +0.054 HD
ATOM     42  H   UNL     1     144.781 167.167 186.098  0.00  0.00    +0.054 HD
ATOM     43  H   UNL     1     147.076 168.884 188.295  0.00  0.00    +0.035 HD
ATOM     44  H   UNL     1     147.057 167.611 190.235  0.00  0.00    +0.037 HD
ATOM     45  H   UNL     1     145.082 165.902 189.258  0.00  0.00    +0.051 HD
ATOM     46  H   UNL     1     146.266 163.820 188.701  0.00  0.00    +0.149 HD
ENDROOT
BRANCH   1  47
ATOM     47  C   UNL     1     155.260 165.841 187.943  0.00  0.00    -0.062 C 
ATOM     48  H   UNL     1     154.931 164.861 187.580  0.00  0.00    +0.023 HD
ATOM     49  H   UNL     1     155.860 166.295 187.148  0.00  0.00    +0.023 HD
ATOM     50  H   UNL     1     155.910 165.681 188.810  0.00  0.00    +0.023 HD
ENDBRANCH   1  47
BRANCH  19  51
ATOM     51  C   UNL     1     145.039 168.436 188.465  0.00  0.00    -0.058 C 
ATOM     52  H   UNL     1     144.483 168.480 187.521  0.00  0.00    +0.024 HD
ATOM     53  H   UNL     1     144.482 167.781 189.140  0.00  0.00    +0.024 HD
ATOM     54  H   UNL     1     145.036 169.443 188.894  0.00  0.00    +0.024 HD
ENDBRANCH  19  51
BRANCH  21  55
ATOM     55  C   UNL     1     146.069 165.467 191.139  0.00  0.00    -0.009 C 
ATOM     56  H   UNL     1     146.845 166.043 191.659  0.00  0.00    +0.033 HD
ATOM     57  H   UNL     1     146.303 164.410 191.324  0.00  0.00    +0.033 HD
BRANCH  55  58
ATOM     58  C   UNL     1     144.733 165.795 191.767  0.00  0.00    -0.046 A 
ATOM     59  C   UNL     1     144.652 166.137 193.124  0.00  0.00    -0.059 A 
ATOM     60  C   UNL     1     143.417 166.417 193.709  0.00  0.00    -0.062 A 
ATOM     61  C   UNL     1     142.252 166.358 192.945  0.00  0.00    -0.062 A 
ATOM     62  C   UNL     1     142.323 166.018 191.596  0.00  0.00    -0.062 A 
ATOM     63  C   UNL     1     143.556 165.735 191.008  0.00  0.00    -0.059 A 
ATOM     64  H   UNL     1     145.552 166.185 193.735  0.00  0.00    +0.062 HD
ATOM     65  H   UNL     1     143.364 166.683 194.762  0.00  0.00    +0.062 HD
ATOM     66  H   UNL     1     141.292 166.578 193.402  0.00  0.00    +0.062 HD
ATOM     67  H   UNL     1     141.414 165.973 191.000  0.00  0.00    +0.062 HD
ATOM     68  H   UNL     1     143.592 165.473 189.954  0.00  0.00    +0.062 HD
ENDBRANCH  55  58
ENDBRANCH  21  55
BRANCH  16  69
ATOM     69  O   UNL     1     148.668 168.309 185.718  0.00  0.00    -0.387 OA
ATOM     70  H   UNL     1     148.810 167.971 184.819  0.00  0.00    +0.210 HD
ENDBRANCH  16  69
BRANCH   5  71
ATOM     71  O   UNL     1     152.263 165.629 193.953  0.00  0.00    -0.388 OA
ATOM     72  H   UNL     1     151.680 166.406 194.000  0.00  0.00    +0.210 HD
ENDBRANCH   5  71
TORSDOF 6
ENDMDL
MODEL 6
REMARK VINA RESULT:      -6.7      2.496      5.656
REMARK  Name = Cytochalasin B_conf2
REMARK  6 active torsions:
REMARK  status: ('A' for Active; 'I' for Inactive)
REMARK    1  A    between atoms: C_1  and  C_2
REMARK    2  A    between atoms: C_6  and  O_35
REMARK    3  A    between atoms: C_17  and  O_34
REMARK    4  A    between atoms: C_20  and  C_33
REMARK    5  A    between atoms: C_22  and  C_26
REMARK    6  A    between atoms: C_26  and  C_27
REMARK                            x       y       z     vdW  Elec       q    Type
REMARK                         _______ _______ _______ _____ _____    ______ ____
ROOT
ATOM      1  C   UNL     1     144.978 167.564 185.971  0.00  0.00    -0.040 C 
ATOM      2  C   UNL     1     145.757 166.351 186.514  0.00  0.00    -0.050 C 
ATOM      3  C   UNL     1     145.721 165.081 185.663  0.00  0.00    -0.050 C 
ATOM      4  C   UNL     1     146.887 164.107 185.919  0.00  0.00    -0.023 C 
ATOM      5  C   UNL     1     147.085 163.605 187.364  0.00  0.00    +0.074 C 
ATOM      6  C   UNL     1     147.519 164.658 188.340  0.00  0.00    -0.049 C 
ATOM      7  C   UNL     1     148.656 165.367 188.230  0.00  0.00    +0.021 C 
ATOM      8  C   UNL     1     148.956 166.579 189.016  0.00  0.00    +0.333 C 
ATOM      9  O   UNL     1     149.861 167.342 188.711  0.00  0.00    -0.246 OA
ATOM     10  O   UNL     1     148.096 166.737 190.045  0.00  0.00    -0.444 OA
ATOM     11  C   UNL     1     148.084 168.004 190.747  0.00  0.00    +0.202 C 
ATOM     12  C   UNL     1     147.619 169.188 189.847  0.00  0.00    +0.056 C 
ATOM     13  C   UNL     1     146.334 168.912 189.068  0.00  0.00    -0.078 C 
ATOM     14  C   UNL     1     146.194 169.002 187.734  0.00  0.00    -0.087 C 
ATOM     15  C   UNL     1     144.896 168.698 187.025  0.00  0.00    -0.032 C 
ATOM     16  C   UNL     1     147.475 170.483 190.697  0.00  0.00    +0.087 C 
ATOM     17  C   UNL     1     148.541 170.619 191.773  0.00  0.00    -0.045 C 
ATOM     18  C   UNL     1     148.331 171.413 192.838  0.00  0.00    -0.097 C 
ATOM     19  C   UNL     1     149.784 169.782 191.541  0.00  0.00    -0.012 C 
ATOM     20  C   UNL     1     149.432 168.269 191.505  0.00  0.00    +0.033 C 
ATOM     21  C   UNL     1     149.238 167.595 192.882  0.00  0.00    +0.035 C 
ATOM     22  N   UNL     1     147.816 167.588 193.069  0.00  0.00    -0.308 N 
ATOM     23  C   UNL     1     147.104 167.768 191.910  0.00  0.00    +0.258 C 
ATOM     24  O   UNL     1     145.885 167.709 191.865  0.00  0.00    -0.271 OA
ATOM     25  H   UNL     1     145.525 167.950 185.099  0.00  0.00    +0.030 HD
ATOM     26  H   UNL     1     146.801 166.666 186.612  0.00  0.00    +0.027 HD
ATOM     27  H   UNL     1     145.377 166.111 187.514  0.00  0.00    +0.027 HD
ATOM     28  H   UNL     1     145.749 165.353 184.601  0.00  0.00    +0.027 HD
ATOM     29  H   UNL     1     144.773 164.556 185.831  0.00  0.00    +0.027 HD
ATOM     30  H   UNL     1     147.817 164.564 185.557  0.00  0.00    +0.029 HD
ATOM     31  H   UNL     1     146.740 163.234 185.269  0.00  0.00    +0.029 HD
ATOM     32  H   UNL     1     146.161 163.140 187.726  0.00  0.00    +0.064 HD
ATOM     33  H   UNL     1     146.789 164.912 189.106  0.00  0.00    +0.060 HD
ATOM     34  H   UNL     1     149.373 165.152 187.445  0.00  0.00    +0.069 HD
ATOM     35  H   UNL     1     148.395 169.366 189.091  0.00  0.00    +0.042 HD
ATOM     36  H   UNL     1     145.464 168.631 189.660  0.00  0.00    +0.057 HD
ATOM     37  H   UNL     1     147.035 169.304 187.113  0.00  0.00    +0.057 HD
ATOM     38  H   UNL     1     144.554 169.617 186.533  0.00  0.00    +0.031 HD
ATOM     39  H   UNL     1     144.124 168.444 187.764  0.00  0.00    +0.031 HD
ATOM     40  H   UNL     1     146.481 170.516 191.161  0.00  0.00    +0.065 HD
ATOM     41  H   UNL     1     147.409 171.982 192.933  0.00  0.00    +0.054 HD
ATOM     42  H   UNL     1     149.054 171.535 193.637  0.00  0.00    +0.054 HD
ATOM     43  H   UNL     1     150.130 170.044 190.529  0.00  0.00    +0.035 HD
ATOM     44  H   UNL     1     150.278 167.779 191.012  0.00  0.00    +0.037 HD
ATOM     45  H   UNL     1     149.666 168.173 193.704  0.00  0.00    +0.051 HD
ATOM     46  H   UNL     1     147.348 167.390 193.947  0.00  0.00    +0.149 HD
ENDROOT
BRANCH   1  47
ATOM     47  C   UNL     1     143.565 167.202 185.509  0.00  0.00    -0.062 C 
ATOM     48  H   UNL     1     143.164 166.373 186.102  0.00  0.00    +0.023 HD
ATOM     49  H   UNL     1     142.878 168.046 185.626  0.00  0.00    +0.023 HD
ATOM     50  H   UNL     1     143.557 166.901 184.456  0.00  0.00    +0.023 HD
ENDBRANCH   1  47
BRANCH  19  51
ATOM     51  C   UNL     1     150.992 170.093 192.435  0.00  0.00    -0.058 C 
ATOM     52  H   UNL     1     150.931 171.119 192.816  0.00  0.00    +0.024 HD
ATOM     53  H   UNL     1     151.068 169.429 193.300  0.00  0.00    +0.024 HD
ATOM     54  H   UNL     1     151.922 170.010 191.864  0.00  0.00    +0.024 HD
ENDBRANCH  19  51
BRANCH  21  55
ATOM     55  C   UNL     1     149.818 166.164 192.902  0.00  0.00    -0.009 C 
ATOM     56  H   UNL     1     149.216 165.510 192.259  0.00  0.00    +0.033 HD
ATOM     57  H   UNL     1     149.763 165.732 193.909  0.00  0.00    +0.033 HD
BRANCH  55  58
ATOM     58  C   UNL     1     151.251 166.116 192.420  0.00  0.00    -0.046 A 
ATOM     59  C   UNL     1     151.575 165.462 191.224  0.00  0.00    -0.059 A 
ATOM     60  C   UNL     1     152.900 165.397 190.790  0.00  0.00    -0.062 A 
ATOM     61  C   UNL     1     153.912 165.985 191.549  0.00  0.00    -0.062 A 
ATOM     62  C   UNL     1     153.599 166.636 192.740  0.00  0.00    -0.062 A 
ATOM     63  C   UNL     1     152.275 166.701 193.177  0.00  0.00    -0.059 A 
ATOM     64  H   UNL     1     150.796 164.996 190.622  0.00  0.00    +0.062 HD
ATOM     65  H   UNL     1     153.142 164.890 189.861  0.00  0.00    +0.062 HD
ATOM     66  H   UNL     1     154.942 165.934 191.209  0.00  0.00    +0.062 HD
ATOM     67  H   UNL     1     154.389 167.095 193.330  0.00  0.00    +0.062 HD
ATOM     68  H   UNL     1     152.050 167.214 194.108  0.00  0.00    +0.062 HD
ENDBRANCH  55  58
ENDBRANCH  21  55
BRANCH  16  69
ATOM     69  O   UNL     1     147.574 171.629 189.848  0.00  0.00    -0.387 OA
ATOM     70  H   UNL     1     147.388 172.414 190.387  0.00  0.00    +0.210 HD
ENDBRANCH  16  69
BRANCH   5  71
ATOM     71  O   UNL     1     148.099 162.602 187.364  0.00  0.00    -0.388 OA
ATOM     72  H   UNL     1     148.224 162.321 188.286  0.00  0.00    +0.210 HD
ENDBRANCH   5  71
TORSDOF 6
ENDMDL
MODEL 7
REMARK VINA RESULT:      -6.6      4.265      8.378
REMARK  Name = Cytochalasin B_conf2
REMARK  6 active torsions:
REMARK  status: ('A' for Active; 'I' for Inactive)
REMARK    1  A    between atoms: C_1  and  C_2
REMARK    2  A    between atoms: C_6  and  O_35
REMARK    3  A    between atoms: C_17  and  O_34
REMARK    4  A    between atoms: C_20  and  C_33
REMARK    5  A    between atoms: C_22  and  C_26
REMARK    6  A    between atoms: C_26  and  C_27
REMARK                            x       y       z     vdW  Elec       q    Type
REMARK                         _______ _______ _______ _____ _____    ______ ____
ROOT
ATOM      1  C   UNL     1     146.631 165.584 194.068  0.00  0.00    -0.040 C 
ATOM      2  C   UNL     1     147.521 166.568 193.284  0.00  0.00    -0.050 C 
ATOM      3  C   UNL     1     148.993 166.633 193.696  0.00  0.00    -0.050 C 
ATOM      4  C   UNL     1     149.938 167.176 192.608  0.00  0.00    -0.023 C 
ATOM      5  C   UNL     1     149.629 168.575 192.037  0.00  0.00    +0.074 C 
ATOM      6  C   UNL     1     148.367 168.659 191.230  0.00  0.00    -0.049 C 
ATOM      7  C   UNL     1     148.134 167.945 190.115  0.00  0.00    +0.021 C 
ATOM      8  C   UNL     1     146.811 167.812 189.477  0.00  0.00    +0.333 C 
ATOM      9  O   UNL     1     146.580 166.957 188.635  0.00  0.00    -0.246 OA
ATOM     10  O   UNL     1     145.922 168.702 189.970  0.00  0.00    -0.444 OA
ATOM     11  C   UNL     1     144.521 168.529 189.649  0.00  0.00    +0.202 C 
ATOM     12  C   UNL     1     143.922 167.220 190.245  0.00  0.00    +0.056 C 
ATOM     13  C   UNL     1     144.237 167.006 191.724  0.00  0.00    -0.078 C 
ATOM     14  C   UNL     1     144.836 165.922 192.247  0.00  0.00    -0.087 C 
ATOM     15  C   UNL     1     145.133 165.782 193.721  0.00  0.00    -0.032 C 
ATOM     16  C   UNL     1     142.386 167.174 190.001  0.00  0.00    +0.087 C 
ATOM     17  C   UNL     1     141.972 167.746 188.654  0.00  0.00    -0.045 C 
ATOM     18  C   UNL     1     140.712 168.174 188.458  0.00  0.00    -0.097 C 
ATOM     19  C   UNL     1     143.084 167.809 187.625  0.00  0.00    -0.012 C 
ATOM     20  C   UNL     1     144.241 168.721 188.117  0.00  0.00    +0.033 C 
ATOM     21  C   UNL     1     144.010 170.241 187.956  0.00  0.00    +0.035 C 
ATOM     22  N   UNL     1     143.561 170.664 189.250  0.00  0.00    -0.308 N 
ATOM     23  C   UNL     1     143.851 169.776 190.255  0.00  0.00    +0.258 C 
ATOM     24  O   UNL     1     143.619 170.007 191.431  0.00  0.00    -0.271 OA
ATOM     25  H   UNL     1     146.916 164.565 193.771  0.00  0.00    +0.030 HD
ATOM     26  H   UNL     1     147.475 166.264 192.233  0.00  0.00    +0.027 HD
ATOM     27  H   UNL     1     147.091 167.573 193.370  0.00  0.00    +0.027 HD
ATOM     28  H   UNL     1     149.342 165.627 193.960  0.00  0.00    +0.027 HD
ATOM     29  H   UNL     1     149.092 167.250 194.597  0.00  0.00    +0.027 HD
ATOM     30  H   UNL     1     149.992 166.447 191.788  0.00  0.00    +0.029 HD
ATOM     31  H   UNL     1     150.953 167.192 193.026  0.00  0.00    +0.029 HD
ATOM     32  H   UNL     1     149.583 169.307 192.850  0.00  0.00    +0.064 HD
ATOM     33  H   UNL     1     147.573 169.259 191.670  0.00  0.00    +0.060 HD
ATOM     34  H   UNL     1     148.904 167.309 189.689  0.00  0.00    +0.069 HD
ATOM     35  H   UNL     1     144.372 166.369 189.716  0.00  0.00    +0.042 HD
ATOM     36  H   UNL     1     143.934 167.805 192.400  0.00  0.00    +0.057 HD
ATOM     37  H   UNL     1     145.130 165.094 191.604  0.00  0.00    +0.057 HD
ATOM     38  H   UNL     1     144.564 164.926 194.103  0.00  0.00    +0.031 HD
ATOM     39  H   UNL     1     144.755 166.663 194.257  0.00  0.00    +0.031 HD
ATOM     40  H   UNL     1     141.865 167.713 190.803  0.00  0.00    +0.065 HD
ATOM     41  H   UNL     1     139.970 168.096 189.249  0.00  0.00    +0.054 HD
ATOM     42  H   UNL     1     140.371 168.600 187.521  0.00  0.00    +0.054 HD
ATOM     43  H   UNL     1     143.494 166.788 187.574  0.00  0.00    +0.035 HD
ATOM     44  H   UNL     1     145.111 168.451 187.509  0.00  0.00    +0.037 HD
ATOM     45  H   UNL     1     143.213 170.477 187.247  0.00  0.00    +0.051 HD
ATOM     46  H   UNL     1     143.140 171.565 189.451  0.00  0.00    +0.149 HD
ENDROOT
BRANCH   1  47
ATOM     47  C   UNL     1     146.817 165.697 195.582  0.00  0.00    -0.062 C 
ATOM     48  H   UNL     1     147.514 166.504 195.829  0.00  0.00    +0.023 HD
ATOM     49  H   UNL     1     145.871 165.922 196.085  0.00  0.00    +0.023 HD
ATOM     50  H   UNL     1     147.212 164.766 196.004  0.00  0.00    +0.023 HD
ENDBRANCH   1  47
BRANCH  19  51
ATOM     51  C   UNL     1     142.660 168.108 186.181  0.00  0.00    -0.058 C 
ATOM     52  H   UNL     1     141.569 168.192 186.113  0.00  0.00    +0.024 HD
ATOM     53  H   UNL     1     143.082 169.039 185.794  0.00  0.00    +0.024 HD
ATOM     54  H   UNL     1     142.969 167.296 185.515  0.00  0.00    +0.024 HD
ENDBRANCH  19  51
BRANCH  21  55
ATOM     55  C   UNL     1     145.304 170.972 187.538  0.00  0.00    -0.009 C 
ATOM     56  H   UNL     1     146.059 170.874 188.328  0.00  0.00    +0.033 HD
ATOM     57  H   UNL     1     145.126 172.048 187.420  0.00  0.00    +0.033 HD
BRANCH  55  58
ATOM     58  C   UNL     1     145.888 170.424 186.255  0.00  0.00    -0.046 A 
ATOM     59  C   UNL     1     145.221 170.608 185.036  0.00  0.00    -0.059 A 
ATOM     60  C   UNL     1     145.748 170.083 183.856  0.00  0.00    -0.062 A 
ATOM     61  C   UNL     1     146.944 169.367 183.883  0.00  0.00    -0.062 A 
ATOM     62  C   UNL     1     147.613 169.176 185.090  0.00  0.00    -0.062 A 
ATOM     63  C   UNL     1     147.088 169.699 186.273  0.00  0.00    -0.059 A 
ATOM     64  H   UNL     1     144.285 171.163 184.999  0.00  0.00    +0.062 HD
ATOM     65  H   UNL     1     145.225 170.233 182.915  0.00  0.00    +0.062 HD
ATOM     66  H   UNL     1     147.353 168.959 182.963  0.00  0.00    +0.062 HD
ATOM     67  H   UNL     1     148.546 168.618 185.110  0.00  0.00    +0.062 HD
ATOM     68  H   UNL     1     147.624 169.542 187.205  0.00  0.00    +0.062 HD
ENDBRANCH  55  58
ENDBRANCH  21  55
BRANCH  16  69
ATOM     69  O   UNL     1     141.931 165.820 190.050  0.00  0.00    -0.387 OA
ATOM     70  H   UNL     1     141.027 165.798 189.698  0.00  0.00    +0.210 HD
ENDBRANCH  16  69
BRANCH   5  71
ATOM     71  O   UNL     1     150.695 168.961 191.171  0.00  0.00    -0.388 OA
ATOM     72  H   UNL     1     150.786 168.264 190.499  0.00  0.00    +0.210 HD
ENDBRANCH   5  71
TORSDOF 6
ENDMDL
MODEL 8
REMARK VINA RESULT:      -6.6      6.134      8.989
REMARK  Name = Cytochalasin B_conf2
REMARK  6 active torsions:
REMARK  status: ('A' for Active; 'I' for Inactive)
REMARK    1  A    between atoms: C_1  and  C_2
REMARK    2  A    between atoms: C_6  and  O_35
REMARK    3  A    between atoms: C_17  and  O_34
REMARK    4  A    between atoms: C_20  and  C_33
REMARK    5  A    between atoms: C_22  and  C_26
REMARK    6  A    between atoms: C_26  and  C_27
REMARK                            x       y       z     vdW  Elec       q    Type
REMARK                         _______ _______ _______ _____ _____    ______ ____
ROOT
ATOM      1  C   UNL     1     138.330 169.779 188.657  0.00  0.00    -0.040 C 
ATOM      2  C   UNL     1     138.947 170.832 189.597  0.00  0.00    -0.050 C 
ATOM      3  C   UNL     1     137.966 171.697 190.389  0.00  0.00    -0.050 C 
ATOM      4  C   UNL     1     138.557 172.329 191.664  0.00  0.00    -0.023 C 
ATOM      5  C   UNL     1     139.812 173.210 191.500  0.00  0.00    +0.074 C 
ATOM      6  C   UNL     1     141.048 172.470 191.083  0.00  0.00    -0.049 C 
ATOM      7  C   UNL     1     141.609 171.474 191.793  0.00  0.00    +0.021 C 
ATOM      8  C   UNL     1     142.646 170.565 191.270  0.00  0.00    +0.333 C 
ATOM      9  O   UNL     1     142.938 169.522 191.836  0.00  0.00    -0.246 OA
ATOM     10  O   UNL     1     143.166 171.011 190.107  0.00  0.00    -0.444 OA
ATOM     11  C   UNL     1     143.994 170.113 189.331  0.00  0.00    +0.202 C 
ATOM     12  C   UNL     1     143.209 168.877 188.796  0.00  0.00    +0.056 C 
ATOM     13  C   UNL     1     141.886 169.226 188.116  0.00  0.00    -0.078 C 
ATOM     14  C   UNL     1     140.680 168.736 188.452  0.00  0.00    -0.087 C 
ATOM     15  C   UNL     1     139.408 169.138 187.745  0.00  0.00    -0.032 C 
ATOM     16  C   UNL     1     144.110 168.040 187.844  0.00  0.00    +0.087 C 
ATOM     17  C   UNL     1     145.563 167.978 188.288  0.00  0.00    -0.045 C 
ATOM     18  C   UNL     1     146.530 167.682 187.402  0.00  0.00    -0.097 C 
ATOM     19  C   UNL     1     145.791 168.302 189.752  0.00  0.00    -0.012 C 
ATOM     20  C   UNL     1     145.327 169.749 190.077  0.00  0.00    +0.033 C 
ATOM     21  C   UNL     1     146.309 170.872 189.678  0.00  0.00    +0.035 C 
ATOM     22  N   UNL     1     145.810 171.342 188.419  0.00  0.00    -0.308 N 
ATOM     23  C   UNL     1     144.505 170.992 188.175  0.00  0.00    +0.258 C 
ATOM     24  O   UNL     1     143.888 171.374 187.193  0.00  0.00    -0.271 OA
ATOM     25  H   UNL     1     137.898 168.985 189.281  0.00  0.00    +0.030 HD
ATOM     26  H   UNL     1     139.573 170.287 190.311  0.00  0.00    +0.027 HD
ATOM     27  H   UNL     1     139.594 171.491 189.007  0.00  0.00    +0.027 HD
ATOM     28  H   UNL     1     137.107 171.088 190.694  0.00  0.00    +0.027 HD
ATOM     29  H   UNL     1     137.578 172.492 189.742  0.00  0.00    +0.027 HD
ATOM     30  H   UNL     1     138.757 171.534 192.395  0.00  0.00    +0.029 HD
ATOM     31  H   UNL     1     137.769 172.937 192.129  0.00  0.00    +0.029 HD
ATOM     32  H   UNL     1     139.614 174.010 190.778  0.00  0.00    +0.064 HD
ATOM     33  H   UNL     1     141.418 172.705 190.087  0.00  0.00    +0.060 HD
ATOM     34  H   UNL     1     141.223 171.202 192.770  0.00  0.00    +0.069 HD
ATOM     35  H   UNL     1     142.946 168.244 189.654  0.00  0.00    +0.042 HD
ATOM     36  H   UNL     1     141.945 169.923 187.280  0.00  0.00    +0.057 HD
ATOM     37  H   UNL     1     140.587 168.019 189.265  0.00  0.00    +0.057 HD
ATOM     38  H   UNL     1     138.986 168.243 187.271  0.00  0.00    +0.031 HD
ATOM     39  H   UNL     1     139.645 169.832 186.928  0.00  0.00    +0.031 HD
ATOM     40  H   UNL     1     144.056 168.446 186.826  0.00  0.00    +0.065 HD
ATOM     41  H   UNL     1     146.286 167.463 186.365  0.00  0.00    +0.054 HD
ATOM     42  H   UNL     1     147.581 167.637 187.666  0.00  0.00    +0.054 HD
ATOM     43  H   UNL     1     145.120 167.629 190.309  0.00  0.00    +0.035 HD
ATOM     44  H   UNL     1     145.205 169.784 191.164  0.00  0.00    +0.037 HD
ATOM     45  H   UNL     1     147.324 170.508 189.503  0.00  0.00    +0.051 HD
ATOM     46  H   UNL     1     146.318 171.947 187.783  0.00  0.00    +0.149 HD
ENDROOT
BRANCH   1  47
ATOM     47  C   UNL     1     137.208 170.348 187.786  0.00  0.00    -0.062 C 
ATOM     48  H   UNL     1     136.505 170.931 188.391  0.00  0.00    +0.023 HD
ATOM     49  H   UNL     1     137.602 171.016 187.014  0.00  0.00    +0.023 HD
ATOM     50  H   UNL     1     136.647 169.549 187.290  0.00  0.00    +0.023 HD
ENDBRANCH   1  47
BRANCH  19  51
ATOM     51  C   UNL     1     147.183 167.982 190.312  0.00  0.00    -0.058 C 
ATOM     52  H   UNL     1     147.846 167.633 189.512  0.00  0.00    +0.024 HD
ATOM     53  H   UNL     1     147.666 168.843 190.782  0.00  0.00    +0.024 HD
ATOM     54  H   UNL     1     147.121 167.183 191.059  0.00  0.00    +0.024 HD
ENDBRANCH  19  51
BRANCH  21  55
ATOM     55  C   UNL     1     146.342 172.000 190.731  0.00  0.00    -0.009 C 
ATOM     56  H   UNL     1     145.460 171.929 191.380  0.00  0.00    +0.033 HD
ATOM     57  H   UNL     1     146.286 172.986 190.252  0.00  0.00    +0.033 HD
BRANCH  55  58
ATOM     58  C   UNL     1     147.578 171.942 191.601  0.00  0.00    -0.046 A 
ATOM     59  C   UNL     1     147.642 172.677 192.792  0.00  0.00    -0.059 A 
ATOM     60  C   UNL     1     148.791 172.641 193.583  0.00  0.00    -0.062 A 
ATOM     61  C   UNL     1     149.886 171.872 193.190  0.00  0.00    -0.062 A 
ATOM     62  C   UNL     1     149.832 171.140 192.006  0.00  0.00    -0.062 A 
ATOM     63  C   UNL     1     148.685 171.174 191.213  0.00  0.00    -0.059 A 
ATOM     64  H   UNL     1     146.796 173.284 193.112  0.00  0.00    +0.062 HD
ATOM     65  H   UNL     1     148.831 173.212 194.507  0.00  0.00    +0.062 HD
ATOM     66  H   UNL     1     150.779 171.845 193.808  0.00  0.00    +0.062 HD
ATOM     67  H   UNL     1     150.686 170.539 191.701  0.00  0.00    +0.062 HD
ATOM     68  H   UNL     1     148.660 170.595 190.293  0.00  0.00    +0.062 HD
ENDBRANCH  55  58
ENDBRANCH  21  55
BRANCH  16  69
ATOM     69  O   UNL     1     143.624 166.697 187.779  0.00  0.00    -0.387 OA
ATOM     70  H   UNL     1     144.039 166.196 188.500  0.00  0.00    +0.210 HD
ENDBRANCH  16  69
BRANCH   5  71
ATOM     71  O   UNL     1     140.105 173.825 192.753  0.00  0.00    -0.388 OA
ATOM     72  H   UNL     1     140.575 173.167 193.293  0.00  0.00    +0.210 HD
ENDBRANCH   5  71
TORSDOF 6
ENDMDL
MODEL 9
REMARK VINA RESULT:      -6.5      4.006      8.430
REMARK  Name = Cytochalasin B_conf2
REMARK  6 active torsions:
REMARK  status: ('A' for Active; 'I' for Inactive)
REMARK    1  A    between atoms: C_1  and  C_2
REMARK    2  A    between atoms: C_6  and  O_35
REMARK    3  A    between atoms: C_17  and  O_34
REMARK    4  A    between atoms: C_20  and  C_33
REMARK    5  A    between atoms: C_22  and  C_26
REMARK    6  A    between atoms: C_26  and  C_27
REMARK                            x       y       z     vdW  Elec       q    Type
REMARK                         _______ _______ _______ _____ _____    ______ ____
ROOT
ATOM      1  C   UNL     1     148.575 167.266 188.884  0.00  0.00    -0.040 C 
ATOM      2  C   UNL     1     149.568 167.051 190.043  0.00  0.00    -0.050 C 
ATOM      3  C   UNL     1     149.033 167.296 191.454  0.00  0.00    -0.050 C 
ATOM      4  C   UNL     1     149.822 166.583 192.569  0.00  0.00    -0.023 C 
ATOM      5  C   UNL     1     151.332 166.879 192.666  0.00  0.00    +0.074 C 
ATOM      6  C   UNL     1     152.148 166.363 191.518  0.00  0.00    -0.049 C 
ATOM      7  C   UNL     1     152.233 165.066 191.174  0.00  0.00    +0.021 C 
ATOM      8  C   UNL     1     152.798 164.581 189.900  0.00  0.00    +0.333 C 
ATOM      9  O   UNL     1     152.620 163.439 189.506  0.00  0.00    -0.246 OA
ATOM     10  O   UNL     1     153.468 165.554 189.245  0.00  0.00    -0.444 OA
ATOM     11  C   UNL     1     153.851 165.321 187.868  0.00  0.00    +0.202 C 
ATOM     12  C   UNL     1     152.625 165.178 186.917  0.00  0.00    +0.056 C 
ATOM     13  C   UNL     1     151.577 166.277 187.080  0.00  0.00    -0.078 C 
ATOM     14  C   UNL     1     150.273 166.082 187.346  0.00  0.00    -0.087 C 
ATOM     15  C   UNL     1     149.294 167.219 187.511  0.00  0.00    -0.032 C 
ATOM     16  C   UNL     1     153.100 165.091 185.438  0.00  0.00    +0.087 C 
ATOM     17  C   UNL     1     154.389 164.303 185.265  0.00  0.00    -0.045 C 
ATOM     18  C   UNL     1     155.152 164.482 184.172  0.00  0.00    -0.097 C 
ATOM     19  C   UNL     1     154.718 163.368 186.413  0.00  0.00    -0.012 C 
ATOM     20  C   UNL     1     154.900 164.162 187.737  0.00  0.00    +0.033 C 
ATOM     21  C   UNL     1     156.268 164.859 187.916  0.00  0.00    +0.035 C 
ATOM     22  N   UNL     1     156.023 166.215 187.517  0.00  0.00    -0.308 N 
ATOM     23  C   UNL     1     154.694 166.558 187.509  0.00  0.00    +0.258 C 
ATOM     24  O   UNL     1     154.303 167.691 187.276  0.00  0.00    -0.271 OA
ATOM     25  H   UNL     1     147.844 166.447 188.913  0.00  0.00    +0.030 HD
ATOM     26  H   UNL     1     149.901 166.010 189.981  0.00  0.00    +0.027 HD
ATOM     27  H   UNL     1     150.437 167.699 189.883  0.00  0.00    +0.027 HD
ATOM     28  H   UNL     1     147.995 166.948 191.515  0.00  0.00    +0.027 HD
ATOM     29  H   UNL     1     149.020 168.373 191.657  0.00  0.00    +0.027 HD
ATOM     30  H   UNL     1     149.663 165.500 192.480  0.00  0.00    +0.029 HD
ATOM     31  H   UNL     1     149.358 166.850 193.528  0.00  0.00    +0.029 HD
ATOM     32  H   UNL     1     151.495 167.958 192.764  0.00  0.00    +0.064 HD
ATOM     33  H   UNL     1     152.592 167.127 190.882  0.00  0.00    +0.060 HD
ATOM     34  H   UNL     1     151.759 164.298 191.776  0.00  0.00    +0.069 HD
ATOM     35  H   UNL     1     152.112 164.237 187.161  0.00  0.00    +0.042 HD
ATOM     36  H   UNL     1     151.930 167.301 186.954  0.00  0.00    +0.057 HD
ATOM     37  H   UNL     1     149.881 165.073 187.453  0.00  0.00    +0.057 HD
ATOM     38  H   UNL     1     148.539 167.136 186.718  0.00  0.00    +0.031 HD
ATOM     39  H   UNL     1     149.807 168.175 187.343  0.00  0.00    +0.031 HD
ATOM     40  H   UNL     1     153.231 166.100 185.028  0.00  0.00    +0.065 HD
ATOM     41  H   UNL     1     154.848 165.175 183.391  0.00  0.00    +0.054 HD
ATOM     42  H   UNL     1     156.085 163.954 184.008  0.00  0.00    +0.054 HD
ATOM     43  H   UNL     1     153.822 162.742 186.548  0.00  0.00    +0.035 HD
ATOM     44  H   UNL     1     154.795 163.426 188.541  0.00  0.00    +0.037 HD
ATOM     45  H   UNL     1     157.038 164.464 187.250  0.00  0.00    +0.051 HD
ATOM     46  H   UNL     1     156.744 166.903 187.332  0.00  0.00    +0.149 HD
ENDROOT
BRANCH   1  47
ATOM     47  C   UNL     1     147.803 168.582 189.004  0.00  0.00    -0.062 C 
ATOM     48  H   UNL     1     148.136 169.149 189.881  0.00  0.00    +0.023 HD
ATOM     49  H   UNL     1     147.961 169.219 188.128  0.00  0.00    +0.023 HD
ATOM     50  H   UNL     1     146.727 168.403 189.104  0.00  0.00    +0.023 HD
ENDBRANCH   1  47
BRANCH  19  51
ATOM     51  C   UNL     1     155.843 162.354 186.166  0.00  0.00    -0.058 C 
ATOM     52  H   UNL     1     156.817 162.857 186.162  0.00  0.00    +0.024 HD
ATOM     53  H   UNL     1     155.886 161.567 186.924  0.00  0.00    +0.024 HD
ATOM     54  H   UNL     1     155.717 161.874 185.190  0.00  0.00    +0.024 HD
ENDBRANCH  19  51
BRANCH  21  55
ATOM     55  C   UNL     1     156.760 164.779 189.377  0.00  0.00    -0.009 C 
ATOM     56  H   UNL     1     155.951 164.416 190.023  0.00  0.00    +0.033 HD
ATOM     57  H   UNL     1     157.028 165.773 189.756  0.00  0.00    +0.033 HD
BRANCH  55  58
ATOM     58  C   UNL     1     157.945 163.852 189.536  0.00  0.00    -0.046 A 
ATOM     59  C   UNL     1     158.527 163.245 188.415  0.00  0.00    -0.059 A 
ATOM     60  C   UNL     1     159.605 162.372 188.564  0.00  0.00    -0.062 A 
ATOM     61  C   UNL     1     160.109 162.096 189.834  0.00  0.00    -0.062 A 
ATOM     62  C   UNL     1     159.536 162.693 190.955  0.00  0.00    -0.062 A 
ATOM     63  C   UNL     1     158.457 163.566 190.809  0.00  0.00    -0.059 A 
ATOM     64  H   UNL     1     158.142 163.449 187.416  0.00  0.00    +0.062 HD
ATOM     65  H   UNL     1     160.051 161.908 187.689  0.00  0.00    +0.062 HD
ATOM     66  H   UNL     1     160.950 161.417 189.948  0.00  0.00    +0.062 HD
ATOM     67  H   UNL     1     159.931 162.478 191.945  0.00  0.00    +0.062 HD
ATOM     68  H   UNL     1     158.023 164.023 191.694  0.00  0.00    +0.062 HD
ENDBRANCH  55  58
ENDBRANCH  21  55
BRANCH  16  69
ATOM     69  O   UNL     1     152.097 164.450 184.647  0.00  0.00    -0.387 OA
ATOM     70  H   UNL     1     152.263 164.676 183.717  0.00  0.00    +0.210 HD
ENDBRANCH  16  69
BRANCH   5  71
ATOM     71  O   UNL     1     151.845 166.260 193.844  0.00  0.00    -0.388 OA
ATOM     72  H   UNL     1     152.372 165.494 193.559  0.00  0.00    +0.210 HD
ENDBRANCH   5  71
TORSDOF 6
ENDMDL
MODEL 10
REMARK VINA RESULT:      -6.5      2.101      5.452
REMARK  Name = Cytochalasin B_conf2
REMARK  6 active torsions:
REMARK  status: ('A' for Active; 'I' for Inactive)
REMARK    1  A    between atoms: C_1  and  C_2
REMARK    2  A    between atoms: C_6  and  O_35
REMARK    3  A    between atoms: C_17  and  O_34
REMARK    4  A    between atoms: C_20  and  C_33
REMARK    5  A    between atoms: C_22  and  C_26
REMARK    6  A    between atoms: C_26  and  C_27
REMARK                            x       y       z     vdW  Elec       q    Type
REMARK                         _______ _______ _______ _____ _____    ______ ____
ROOT
ATOM      1  C   UNL     1     150.190 165.045 184.232  0.00  0.00    -0.040 C 
ATOM      2  C   UNL     1     150.907 164.434 185.451  0.00  0.00    -0.050 C 
ATOM      3  C   UNL     1     152.054 163.466 185.153  0.00  0.00    -0.050 C 
ATOM      4  C   UNL     1     153.065 163.301 186.302  0.00  0.00    -0.023 C 
ATOM      5  C   UNL     1     152.515 162.847 187.670  0.00  0.00    +0.074 C 
ATOM      6  C   UNL     1     151.634 163.848 188.355  0.00  0.00    -0.049 C 
ATOM      7  C   UNL     1     152.029 165.083 188.713  0.00  0.00    +0.021 C 
ATOM      8  C   UNL     1     151.110 166.160 189.129  0.00  0.00    +0.333 C 
ATOM      9  O   UNL     1     151.465 167.327 189.188  0.00  0.00    -0.246 OA
ATOM     10  O   UNL     1     149.868 165.692 189.378  0.00  0.00    -0.444 OA
ATOM     11  C   UNL     1     148.790 166.646 189.536  0.00  0.00    +0.202 C 
ATOM     12  C   UNL     1     148.499 167.449 188.232  0.00  0.00    +0.056 C 
ATOM     13  C   UNL     1     148.366 166.581 186.982  0.00  0.00    -0.078 C 
ATOM     14  C   UNL     1     149.084 166.719 185.854  0.00  0.00    -0.087 C 
ATOM     15  C   UNL     1     148.912 165.813 184.658  0.00  0.00    -0.032 C 
ATOM     16  C   UNL     1     147.234 168.335 188.419  0.00  0.00    +0.087 C 
ATOM     17  C   UNL     1     147.118 168.934 189.812  0.00  0.00    -0.045 C 
ATOM     18  C   UNL     1     145.926 169.350 190.274  0.00  0.00    -0.097 C 
ATOM     19  C   UNL     1     148.418 168.976 190.592  0.00  0.00    -0.012 C 
ATOM     20  C   UNL     1     148.980 167.543 190.809  0.00  0.00    +0.033 C 
ATOM     21  C   UNL     1     148.324 166.734 191.950  0.00  0.00    +0.035 C 
ATOM     22  N   UNL     1     147.363 165.905 191.283  0.00  0.00    -0.308 N 
ATOM     23  C   UNL     1     147.585 165.775 189.935  0.00  0.00    +0.258 C 
ATOM     24  O   UNL     1     146.919 165.042 189.220  0.00  0.00    -0.271 OA
ATOM     25  H   UNL     1     150.877 165.764 183.764  0.00  0.00    +0.030 HD
ATOM     26  H   UNL     1     151.311 165.271 186.030  0.00  0.00    +0.027 HD
ATOM     27  H   UNL     1     150.166 163.916 186.069  0.00  0.00    +0.027 HD
ATOM     28  H   UNL     1     152.610 163.819 184.276  0.00  0.00    +0.027 HD
ATOM     29  H   UNL     1     151.642 162.484 184.894  0.00  0.00    +0.027 HD
ATOM     30  H   UNL     1     153.623 164.240 186.423  0.00  0.00    +0.029 HD
ATOM     31  H   UNL     1     153.821 162.574 185.978  0.00  0.00    +0.029 HD
ATOM     32  H   UNL     1     151.966 161.906 187.555  0.00  0.00    +0.064 HD
ATOM     33  H   UNL     1     150.588 163.562 188.449  0.00  0.00    +0.060 HD
ATOM     34  H   UNL     1     153.060 165.397 188.585  0.00  0.00    +0.069 HD
ATOM     35  H   UNL     1     149.352 168.114 188.044  0.00  0.00    +0.042 HD
ATOM     36  H   UNL     1     147.611 165.795 187.020  0.00  0.00    +0.057 HD
ATOM     37  H   UNL     1     149.829 167.508 185.771  0.00  0.00    +0.057 HD
ATOM     38  H   UNL     1     148.567 166.424 183.815  0.00  0.00    +0.031 HD
ATOM     39  H   UNL     1     148.110 165.089 184.857  0.00  0.00    +0.031 HD
ATOM     40  H   UNL     1     146.333 167.751 188.196  0.00  0.00    +0.065 HD
ATOM     41  H   UNL     1     145.036 169.284 189.652  0.00  0.00    +0.054 HD
ATOM     42  H   UNL     1     145.789 169.772 191.263  0.00  0.00    +0.054 HD
ATOM     43  H   UNL     1     149.137 169.494 189.938  0.00  0.00    +0.035 HD
ATOM     44  H   UNL     1     150.037 167.674 191.060  0.00  0.00    +0.037 HD
ATOM     45  H   UNL     1     147.771 167.360 192.654  0.00  0.00    +0.051 HD
ATOM     46  H   UNL     1     146.626 165.384 191.746  0.00  0.00    +0.149 HD
ENDROOT
BRANCH   1  47
ATOM     47  C   UNL     1     149.821 164.000 183.177  0.00  0.00    -0.062 C 
ATOM     48  H   UNL     1     149.110 164.412 182.453  0.00  0.00    +0.023 HD
ATOM     49  H   UNL     1     150.702 163.672 182.615  0.00  0.00    +0.023 HD
ATOM     50  H   UNL     1     149.364 163.117 183.637  0.00  0.00    +0.023 HD
ENDBRANCH   1  47
BRANCH  19  51
ATOM     51  C   UNL     1     148.416 169.817 191.875  0.00  0.00    -0.058 C 
ATOM     52  H   UNL     1     147.470 170.362 191.973  0.00  0.00    +0.024 HD
ATOM     53  H   UNL     1     148.541 169.218 192.782  0.00  0.00    +0.024 HD
ATOM     54  H   UNL     1     149.221 170.559 191.849  0.00  0.00    +0.024 HD
ENDBRANCH  19  51
BRANCH  21  55
ATOM     55  C   UNL     1     149.363 165.890 192.719  0.00  0.00    -0.009 C 
ATOM     56  H   UNL     1     150.376 166.232 192.473  0.00  0.00    +0.033 HD
ATOM     57  H   UNL     1     149.317 164.837 192.413  0.00  0.00    +0.033 HD
BRANCH  55  58
ATOM     58  C   UNL     1     149.183 165.978 194.218  0.00  0.00    -0.046 A 
ATOM     59  C   UNL     1     147.935 166.309 194.765  0.00  0.00    -0.059 A 
ATOM     60  C   UNL     1     147.775 166.413 196.147  0.00  0.00    -0.062 A 
ATOM     61  C   UNL     1     148.860 166.191 196.994  0.00  0.00    -0.062 A 
ATOM     62  C   UNL     1     150.104 165.864 196.460  0.00  0.00    -0.062 A 
ATOM     63  C   UNL     1     150.268 165.759 195.078  0.00  0.00    -0.059 A 
ATOM     64  H   UNL     1     147.080 166.488 194.116  0.00  0.00    +0.062 HD
ATOM     65  H   UNL     1     146.804 166.668 196.562  0.00  0.00    +0.062 HD
ATOM     66  H   UNL     1     148.733 166.271 198.070  0.00  0.00    +0.062 HD
ATOM     67  H   UNL     1     150.949 165.689 197.122  0.00  0.00    +0.062 HD
ATOM     68  H   UNL     1     151.246 165.503 194.679  0.00  0.00    +0.062 HD
ENDBRANCH  55  58
ENDBRANCH  21  55
BRANCH  16  69
ATOM     69  O   UNL     1     147.266 169.420 187.488  0.00  0.00    -0.387 OA
ATOM     70  H   UNL     1     146.406 169.869 187.527  0.00  0.00    +0.210 HD
ENDBRANCH  16  69
BRANCH   5  71
ATOM     71  O   UNL     1     153.613 162.600 188.545  0.00  0.00    -0.388 OA
ATOM     72  H   UNL     1     153.360 161.857 189.120  0.00  0.00    +0.210 HD
ENDBRANCH   5  71
TORSDOF 6
ENDMDL
