MODEL 1
REMARK VINA RESULT:      -7.1      0.000      0.000
REMARK  Name = Cytochalasin D_conf2
REMARK  10 active torsions:
REMARK  status: ('A' for Active; 'I' for Inactive)
REMARK    1  A    between atoms: C_1  and  C_2
REMARK    2  A    between atoms: C_7  and  O_37
REMARK    3  A    between atoms: C_10  and  C_36
REMARK    4  A    between atoms: C_13  and  O_21
REMARK    5  A    between atoms: C_16  and  C_19
REMARK    6  A    between atoms: C_16  and  O_20
REMARK    7  A    between atoms: O_21  and  C_22
REMARK    8  A    between atoms: C_22  and  C_24
REMARK    9  A    between atoms: C_28  and  C_29
REMARK   10  A    between atoms: C_29  and  C_30
REMARK                            x       y       z     vdW  Elec       q    Type
REMARK                         _______ _______ _______ _____ _____    ______ ____
ROOT
ATOM      1  C   UNL     1     154.987 164.297 188.990  0.00  0.00    +0.021 C 
ATOM      2  C   UNL     1     154.562 164.242 190.467  0.00  0.00    -0.025 C 
ATOM      3  C   UNL     1     153.093 164.512 190.659  0.00  0.00    -0.087 C 
ATOM      4  C   UNL     1     152.603 165.642 191.198  0.00  0.00    -0.081 C 
ATOM      5  C   UNL     1     151.115 165.932 191.392  0.00  0.00    +0.025 C 
ATOM      6  C   UNL     1     150.810 166.027 192.915  0.00  0.00    +0.084 C 
ATOM      7  C   UNL     1     149.373 166.393 193.224  0.00  0.00    -0.045 C 
ATOM      8  C   UNL     1     148.992 166.635 194.492  0.00  0.00    -0.097 C 
ATOM      9  C   UNL     1     148.459 166.466 192.017  0.00  0.00    -0.015 C 
ATOM     10  C   UNL     1     149.036 167.477 190.992  0.00  0.00    +0.002 C 
ATOM     11  C   UNL     1     150.548 167.173 190.600  0.00  0.00    +0.101 C 
ATOM     12  C   UNL     1     150.641 166.997 189.043  0.00  0.00    +0.136 C 
ATOM     13  C   UNL     1     152.032 167.124 188.450  0.00  0.00    -0.044 C 
ATOM     14  C   UNL     1     152.747 166.153 187.850  0.00  0.00    -0.046 C 
ATOM     15  C   UNL     1     154.178 166.263 187.393  0.00  0.00    +0.139 C 
ATOM     16  C   UNL     1     155.110 165.749 188.527  0.00  0.00    +0.171 C 
ATOM     17  O   UNL     1     155.934 166.515 189.043  0.00  0.00    -0.294 OA
ATOM     18  C   UNL     1     151.263 168.443 191.058  0.00  0.00    +0.224 C 
ATOM     19  O   UNL     1     152.463 168.666 191.043  0.00  0.00    -0.275 OA
ATOM     20  N   UNL     1     150.371 169.345 191.556  0.00  0.00    -0.311 N 
ATOM     21  C   UNL     1     149.002 168.939 191.502  0.00  0.00    +0.032 C 
ATOM     22  H   UNL     1     154.251 163.770 188.372  0.00  0.00    +0.038 HD
ATOM     23  H   UNL     1     154.762 163.243 190.873  0.00  0.00    +0.031 HD
ATOM     24  H   UNL     1     155.160 164.941 191.066  0.00  0.00    +0.031 HD
ATOM     25  H   UNL     1     152.409 163.732 190.328  0.00  0.00    +0.057 HD
ATOM     26  H   UNL     1     153.301 166.413 191.524  0.00  0.00    +0.057 HD
ATOM     27  H   UNL     1     150.587 165.037 191.028  0.00  0.00    +0.038 HD
ATOM     28  H   UNL     1     151.479 166.754 193.393  0.00  0.00    +0.065 HD
ATOM     29  H   UNL     1     147.977 166.897 194.767  0.00  0.00    +0.054 HD
ATOM     30  H   UNL     1     149.707 166.551 195.308  0.00  0.00    +0.054 HD
ATOM     31  H   UNL     1     148.469 165.472 191.546  0.00  0.00    +0.035 HD
ATOM     32  H   UNL     1     148.397 167.403 190.109  0.00  0.00    +0.034 HD
ATOM     33  H   UNL     1     150.043 167.766 188.544  0.00  0.00    +0.079 HD
ATOM     34  H   UNL     1     152.486 168.108 188.557  0.00  0.00    +0.061 HD
ATOM     35  H   UNL     1     152.301 165.167 187.743  0.00  0.00    +0.060 HD
ATOM     36  H   UNL     1     150.701 170.224 191.938  0.00  0.00    +0.149 HD
ATOM     37  H   UNL     1     148.650 168.987 192.538  0.00  0.00    +0.050 HD
ENDROOT
BRANCH   1  38
ATOM     38  C   UNL     1     156.340 163.615 188.789  0.00  0.00    -0.055 C 
ATOM     39  H   UNL     1     157.120 164.353 188.573  0.00  0.00    +0.024 HD
ATOM     40  H   UNL     1     156.300 162.911 187.952  0.00  0.00    +0.024 HD
ATOM     41  H   UNL     1     156.649 163.062 189.684  0.00  0.00    +0.024 HD
ENDBRANCH   1  38
BRANCH  15  42
ATOM     42  C   UNL     1     154.427 165.504 186.093  0.00  0.00    -0.025 C 
ATOM     43  H   UNL     1     153.690 164.702 185.967  0.00  0.00    +0.026 HD
ATOM     44  H   UNL     1     155.414 165.024 186.100  0.00  0.00    +0.026 HD
ATOM     45  H   UNL     1     154.369 166.150 185.211  0.00  0.00    +0.026 HD
ENDBRANCH  15  42
BRANCH   9  46
ATOM     46  C   UNL     1     146.975 166.742 192.303  0.00  0.00    -0.058 C 
ATOM     47  H   UNL     1     146.554 166.063 193.050  0.00  0.00    +0.024 HD
ATOM     48  H   UNL     1     146.380 166.643 191.388  0.00  0.00    +0.024 HD
ATOM     49  H   UNL     1     146.839 167.766 192.668  0.00  0.00    +0.024 HD
ENDBRANCH   9  46
BRANCH  21  50
ATOM     50  C   UNL     1     148.112 169.908 190.696  0.00  0.00    -0.009 C 
ATOM     51  H   UNL     1     148.646 170.198 189.781  0.00  0.00    +0.033 HD
ATOM     52  H   UNL     1     147.222 169.364 190.350  0.00  0.00    +0.033 HD
BRANCH  50  53
ATOM     53  C   UNL     1     147.628 171.148 191.410  0.00  0.00    -0.046 A 
ATOM     54  C   UNL     1     146.417 171.758 191.057  0.00  0.00    -0.059 A 
ATOM     55  C   UNL     1     145.967 172.895 191.732  0.00  0.00    -0.062 A 
ATOM     56  C   UNL     1     146.730 173.443 192.759  0.00  0.00    -0.062 A 
ATOM     57  C   UNL     1     147.944 172.859 193.107  0.00  0.00    -0.062 A 
ATOM     58  C   UNL     1     148.393 171.720 192.435  0.00  0.00    -0.059 A 
ATOM     59  H   UNL     1     145.805 171.353 190.255  0.00  0.00    +0.062 HD
ATOM     60  H   UNL     1     145.020 173.351 191.457  0.00  0.00    +0.062 HD
ATOM     61  H   UNL     1     146.378 174.324 193.289  0.00  0.00    +0.062 HD
ATOM     62  H   UNL     1     148.540 173.277 193.915  0.00  0.00    +0.062 HD
ATOM     63  H   UNL     1     149.338 171.274 192.740  0.00  0.00    +0.062 HD
ENDBRANCH  50  53
ENDBRANCH  21  50
BRANCH  15  64
ATOM     64  O   UNL     1     154.486 167.635 187.127  0.00  0.00    -0.377 OA
ATOM     65  H   UNL     1     154.531 167.711 186.152  0.00  0.00    +0.211 HD
ENDBRANCH  15  64
BRANCH   6  66
ATOM     66  O   UNL     1     151.038 164.753 193.527  0.00  0.00    -0.387 OA
ATOM     67  H   UNL     1     151.648 164.905 194.270  0.00  0.00    +0.210 HD
ENDBRANCH   6  66
BRANCH  12  68
ATOM     68  O   UNL     1     150.142 165.674 188.702  0.00  0.00    -0.456 OA
BRANCH  68  69
ATOM     69  C   UNL     1     149.138 165.552 187.800  0.00  0.00    +0.305 C 
ATOM     70  O   UNL     1     149.193 165.829 186.613  0.00  0.00    -0.251 OA
BRANCH  69  71
ATOM     71  C   UNL     1     147.918 165.005 188.476  0.00  0.00    +0.033 C 
ATOM     72  H   UNL     1     147.288 165.823 188.834  0.00  0.00    +0.034 HD
ATOM     73  H   UNL     1     148.215 164.360 189.304  0.00  0.00    +0.034 HD
ATOM     74  H   UNL     1     147.336 164.423 187.754  0.00  0.00    +0.034 HD
ENDBRANCH  69  71
ENDBRANCH  68  69
ENDBRANCH  12  68
TORSDOF 10
ENDMDL
MODEL 2
REMARK VINA RESULT:      -6.8      3.008      8.063
REMARK  Name = Cytochalasin D_conf2
REMARK  10 active torsions:
REMARK  status: ('A' for Active; 'I' for Inactive)
REMARK    1  A    between atoms: C_1  and  C_2
REMARK    2  A    between atoms: C_7  and  O_37
REMARK    3  A    between atoms: C_10  and  C_36
REMARK    4  A    between atoms: C_13  and  O_21
REMARK    5  A    between atoms: C_16  and  C_19
REMARK    6  A    between atoms: C_16  and  O_20
REMARK    7  A    between atoms: O_21  and  C_22
REMARK    8  A    between atoms: C_22  and  C_24
REMARK    9  A    between atoms: C_28  and  C_29
REMARK   10  A    between atoms: C_29  and  C_30
REMARK                            x       y       z     vdW  Elec       q    Type
REMARK                         _______ _______ _______ _____ _____    ______ ____
ROOT
ATOM      1  C   UNL     1     143.174 166.923 192.796  0.00  0.00    +0.021 C 
ATOM      2  C   UNL     1     144.232 166.151 193.602  0.00  0.00    -0.025 C 
ATOM      3  C   UNL     1     145.604 166.765 193.495  0.00  0.00    -0.087 C 
ATOM      4  C   UNL     1     146.618 166.214 192.805  0.00  0.00    -0.081 C 
ATOM      5  C   UNL     1     148.013 166.828 192.683  0.00  0.00    +0.025 C 
ATOM      6  C   UNL     1     149.043 165.893 193.381  0.00  0.00    +0.084 C 
ATOM      7  C   UNL     1     150.476 166.366 193.250  0.00  0.00    -0.045 C 
ATOM      8  C   UNL     1     151.488 165.596 193.694  0.00  0.00    -0.097 C 
ATOM      9  C   UNL     1     150.644 167.721 192.591  0.00  0.00    -0.015 C 
ATOM     10  C   UNL     1     149.982 167.699 191.189  0.00  0.00    +0.002 C 
ATOM     11  C   UNL     1     148.467 167.216 191.223  0.00  0.00    +0.101 C 
ATOM     12  C   UNL     1     147.567 168.332 190.581  0.00  0.00    +0.136 C 
ATOM     13  C   UNL     1     146.183 167.887 190.145  0.00  0.00    -0.044 C 
ATOM     14  C   UNL     1     145.005 168.285 190.662  0.00  0.00    -0.046 C 
ATOM     15  C   UNL     1     143.650 167.728 190.308  0.00  0.00    +0.139 C 
ATOM     16  C   UNL     1     143.295 166.593 191.308  0.00  0.00    +0.171 C 
ATOM     17  O   UNL     1     143.119 165.439 190.895  0.00  0.00    -0.294 OA
ATOM     18  C   UNL     1     148.506 165.965 190.349  0.00  0.00    +0.224 C 
ATOM     19  O   UNL     1     147.593 165.185 190.125  0.00  0.00    -0.275 OA
ATOM     20  N   UNL     1     149.756 165.770 189.841  0.00  0.00    -0.311 N 
ATOM     21  C   UNL     1     150.714 166.770 190.191  0.00  0.00    +0.032 C 
ATOM     22  H   UNL     1     143.303 168.001 192.950  0.00  0.00    +0.038 HD
ATOM     23  H   UNL     1     143.961 166.151 194.665  0.00  0.00    +0.031 HD
ATOM     24  H   UNL     1     144.259 165.098 193.294  0.00  0.00    +0.031 HD
ATOM     25  H   UNL     1     145.755 167.711 194.012  0.00  0.00    +0.057 HD
ATOM     26  H   UNL     1     146.452 165.266 192.294  0.00  0.00    +0.057 HD
ATOM     27  H   UNL     1     147.985 167.753 193.279  0.00  0.00    +0.038 HD
ATOM     28  H   UNL     1     148.962 164.873 192.985  0.00  0.00    +0.065 HD
ATOM     29  H   UNL     1     152.529 165.888 193.628  0.00  0.00    +0.054 HD
ATOM     30  H   UNL     1     151.284 164.638 194.167  0.00  0.00    +0.054 HD
ATOM     31  H   UNL     1     150.095 168.447 193.208  0.00  0.00    +0.035 HD
ATOM     32  H   UNL     1     150.042 168.725 190.817  0.00  0.00    +0.034 HD
ATOM     33  H   UNL     1     148.043 168.722 189.677  0.00  0.00    +0.079 HD
ATOM     34  H   UNL     1     146.172 167.150 189.342  0.00  0.00    +0.061 HD
ATOM     35  H   UNL     1     145.009 169.018 191.465  0.00  0.00    +0.060 HD
ATOM     36  H   UNL     1     149.949 164.954 189.273  0.00  0.00    +0.149 HD
ATOM     37  H   UNL     1     151.528 166.225 190.682  0.00  0.00    +0.050 HD
ENDROOT
BRANCH   1  38
ATOM     38  C   UNL     1     141.765 166.551 193.256  0.00  0.00    -0.055 C 
ATOM     39  H   UNL     1     141.329 165.788 192.600  0.00  0.00    +0.024 HD
ATOM     40  H   UNL     1     141.107 167.425 193.239  0.00  0.00    +0.024 HD
ATOM     41  H   UNL     1     141.767 166.147 194.274  0.00  0.00    +0.024 HD
ENDBRANCH   1  38
BRANCH  15  42
ATOM     42  C   UNL     1     142.570 168.806 190.296  0.00  0.00    -0.025 C 
ATOM     43  H   UNL     1     142.977 169.755 189.928  0.00  0.00    +0.026 HD
ATOM     44  H   UNL     1     142.194 168.997 191.308  0.00  0.00    +0.026 HD
ATOM     45  H   UNL     1     141.719 168.542 189.660  0.00  0.00    +0.026 HD
ENDBRANCH  15  42
BRANCH   9  46
ATOM     46  C   UNL     1     152.076 168.274 192.528  0.00  0.00    -0.058 C 
ATOM     47  H   UNL     1     152.835 167.486 192.507  0.00  0.00    +0.024 HD
ATOM     48  H   UNL     1     152.282 168.914 193.392  0.00  0.00    +0.024 HD
ATOM     49  H   UNL     1     152.210 168.888 191.630  0.00  0.00    +0.024 HD
ENDBRANCH   9  46
BRANCH  21  50
ATOM     50  C   UNL     1     151.339 167.467 188.963  0.00  0.00    -0.009 C 
ATOM     51  H   UNL     1     150.666 167.338 188.105  0.00  0.00    +0.033 HD
ATOM     52  H   UNL     1     151.366 168.549 189.148  0.00  0.00    +0.033 HD
BRANCH  50  53
ATOM     53  C   UNL     1     152.737 167.045 188.574  0.00  0.00    -0.046 A 
ATOM     54  C   UNL     1     153.151 167.067 187.235  0.00  0.00    -0.059 A 
ATOM     55  C   UNL     1     154.448 166.690 186.883  0.00  0.00    -0.062 A 
ATOM     56  C   UNL     1     155.344 166.275 187.865  0.00  0.00    -0.062 A 
ATOM     57  C   UNL     1     154.940 166.230 189.196  0.00  0.00    -0.062 A 
ATOM     58  C   UNL     1     153.643 166.609 189.549  0.00  0.00    -0.059 A 
ATOM     59  H   UNL     1     152.469 167.382 186.449  0.00  0.00    +0.062 HD
ATOM     60  H   UNL     1     154.762 166.725 185.843  0.00  0.00    +0.062 HD
ATOM     61  H   UNL     1     156.356 165.988 187.593  0.00  0.00    +0.062 HD
ATOM     62  H   UNL     1     155.637 165.915 189.968  0.00  0.00    +0.062 HD
ATOM     63  H   UNL     1     153.359 166.581 190.599  0.00  0.00    +0.062 HD
ENDBRANCH  50  53
ENDBRANCH  21  50
BRANCH  15  64
ATOM     64  O   UNL     1     143.694 167.183 188.985  0.00  0.00    -0.377 OA
ATOM     65  H   UNL     1     144.132 167.864 188.433  0.00  0.00    +0.211 HD
ENDBRANCH  15  64
BRANCH   6  66
ATOM     66  O   UNL     1     148.766 165.843 194.784  0.00  0.00    -0.387 OA
ATOM     67  H   UNL     1     147.801 165.764 194.877  0.00  0.00    +0.210 HD
ENDBRANCH   6  66
BRANCH  12  68
ATOM     68  O   UNL     1     147.393 169.396 191.556  0.00  0.00    -0.456 OA
BRANCH  68  69
ATOM     69  C   UNL     1     147.878 170.633 191.287  0.00  0.00    +0.305 C 
ATOM     70  O   UNL     1     147.584 171.335 190.333  0.00  0.00    -0.251 OA
BRANCH  69  71
ATOM     71  C   UNL     1     148.846 171.038 192.357  0.00  0.00    +0.033 C 
ATOM     72  H   UNL     1     148.309 171.459 193.210  0.00  0.00    +0.034 HD
ATOM     73  H   UNL     1     149.555 171.763 191.955  0.00  0.00    +0.034 HD
ATOM     74  H   UNL     1     149.389 170.154 192.705  0.00  0.00    +0.034 HD
ENDBRANCH  69  71
ENDBRANCH  68  69
ENDBRANCH  12  68
TORSDOF 10
ENDMDL
MODEL 3
REMARK VINA RESULT:      -6.6      3.632      7.796
REMARK  Name = Cytochalasin D_conf2
REMARK  10 active torsions:
REMARK  status: ('A' for Active; 'I' for Inactive)
REMARK    1  A    between atoms: C_1  and  C_2
REMARK    2  A    between atoms: C_7  and  O_37
REMARK    3  A    between atoms: C_10  and  C_36
REMARK    4  A    between atoms: C_13  and  O_21
REMARK    5  A    between atoms: C_16  and  C_19
REMARK    6  A    between atoms: C_16  and  O_20
REMARK    7  A    between atoms: O_21  and  C_22
REMARK    8  A    between atoms: C_22  and  C_24
REMARK    9  A    between atoms: C_28  and  C_29
REMARK   10  A    between atoms: C_29  and  C_30
REMARK                            x       y       z     vdW  Elec       q    Type
REMARK                         _______ _______ _______ _____ _____    ______ ____
ROOT
ATOM      1  C   UNL     1     144.385 170.199 185.643  0.00  0.00    +0.021 C 
ATOM      2  C   UNL     1     144.726 171.204 186.756  0.00  0.00    -0.025 C 
ATOM      3  C   UNL     1     145.944 170.802 187.547  0.00  0.00    -0.087 C 
ATOM      4  C   UNL     1     145.899 170.351 188.813  0.00  0.00    -0.081 C 
ATOM      5  C   UNL     1     147.126 169.934 189.624  0.00  0.00    +0.025 C 
ATOM      6  C   UNL     1     147.294 170.907 190.827  0.00  0.00    +0.084 C 
ATOM      7  C   UNL     1     148.438 170.537 191.750  0.00  0.00    -0.045 C 
ATOM      8  C   UNL     1     148.626 171.211 192.900  0.00  0.00    -0.097 C 
ATOM      9  C   UNL     1     149.295 169.381 191.273  0.00  0.00    -0.015 C 
ATOM     10  C   UNL     1     148.401 168.136 191.041  0.00  0.00    +0.002 C 
ATOM     11  C   UNL     1     147.168 168.424 190.079  0.00  0.00    +0.101 C 
ATOM     12  C   UNL     1     147.227 167.425 188.869  0.00  0.00    +0.136 C 
ATOM     13  C   UNL     1     145.936 167.262 188.088  0.00  0.00    -0.044 C 
ATOM     14  C   UNL     1     145.712 167.624 186.810  0.00  0.00    -0.046 C 
ATOM     15  C   UNL     1     144.385 167.580 186.099  0.00  0.00    +0.139 C 
ATOM     16  C   UNL     1     143.696 168.967 186.232  0.00  0.00    +0.171 C 
ATOM     17  O   UNL     1     142.607 169.063 186.813  0.00  0.00    -0.294 OA
ATOM     18  C   UNL     1     145.974 168.128 190.983  0.00  0.00    +0.224 C 
ATOM     19  O   UNL     1     144.790 168.276 190.724  0.00  0.00    -0.275 OA
ATOM     20  N   UNL     1     146.391 167.691 192.205  0.00  0.00    -0.311 N 
ATOM     21  C   UNL     1     147.806 167.568 192.354  0.00  0.00    +0.032 C 
ATOM     22  H   UNL     1     145.299 169.900 185.119  0.00  0.00    +0.038 HD
ATOM     23  H   UNL     1     144.937 172.187 186.317  0.00  0.00    +0.031 HD
ATOM     24  H   UNL     1     143.867 171.345 187.424  0.00  0.00    +0.031 HD
ATOM     25  H   UNL     1     146.903 170.887 187.038  0.00  0.00    +0.057 HD
ATOM     26  H   UNL     1     144.932 170.273 189.309  0.00  0.00    +0.057 HD
ATOM     27  H   UNL     1     147.991 170.107 188.966  0.00  0.00    +0.038 HD
ATOM     28  H   UNL     1     146.364 170.959 191.408  0.00  0.00    +0.065 HD
ATOM     29  H   UNL     1     149.430 170.990 193.592  0.00  0.00    +0.054 HD
ATOM     30  H   UNL     1     147.973 172.039 193.167  0.00  0.00    +0.054 HD
ATOM     31  H   UNL     1     149.716 169.675 190.300  0.00  0.00    +0.035 HD
ATOM     32  H   UNL     1     149.054 167.379 190.600  0.00  0.00    +0.034 HD
ATOM     33  H   UNL     1     147.478 166.421 189.225  0.00  0.00    +0.079 HD
ATOM     34  H   UNL     1     145.113 166.827 188.653  0.00  0.00    +0.061 HD
ATOM     35  H   UNL     1     146.529 168.062 186.241  0.00  0.00    +0.060 HD
ATOM     36  H   UNL     1     145.712 167.493 192.930  0.00  0.00    +0.149 HD
ATOM     37  H   UNL     1     148.060 168.203 193.209  0.00  0.00    +0.050 HD
ENDROOT
BRANCH   1  38
ATOM     38  C   UNL     1     143.443 170.828 184.616  0.00  0.00    -0.055 C 
ATOM     39  H   UNL     1     143.999 171.170 183.735  0.00  0.00    +0.024 HD
ATOM     40  H   UNL     1     142.922 171.690 185.042  0.00  0.00    +0.024 HD
ATOM     41  H   UNL     1     142.689 170.112 184.270  0.00  0.00    +0.024 HD
ENDBRANCH   1  38
BRANCH  15  42
ATOM     42  C   UNL     1     144.531 167.179 184.633  0.00  0.00    -0.025 C 
ATOM     43  H   UNL     1     143.569 166.841 184.229  0.00  0.00    +0.026 HD
ATOM     44  H   UNL     1     145.230 166.341 184.523  0.00  0.00    +0.026 HD
ATOM     45  H   UNL     1     144.884 168.003 184.004  0.00  0.00    +0.026 HD
ENDBRANCH  15  42
BRANCH   9  46
ATOM     46  C   UNL     1     150.519 169.041 192.137  0.00  0.00    -0.058 C 
ATOM     47  H   UNL     1     151.442 169.491 191.760  0.00  0.00    +0.024 HD
ATOM     48  H   UNL     1     150.670 167.957 192.183  0.00  0.00    +0.024 HD
ATOM     49  H   UNL     1     150.373 169.392 193.164  0.00  0.00    +0.024 HD
ENDBRANCH   9  46
BRANCH  21  50
ATOM     50  C   UNL     1     148.255 166.138 192.727  0.00  0.00    -0.009 C 
ATOM     51  H   UNL     1     147.373 165.485 192.743  0.00  0.00    +0.033 HD
ATOM     52  H   UNL     1     148.889 165.746 191.921  0.00  0.00    +0.033 HD
BRANCH  50  53
ATOM     53  C   UNL     1     149.023 165.977 194.018  0.00  0.00    -0.046 A 
ATOM     54  C   UNL     1     148.378 166.080 195.259  0.00  0.00    -0.059 A 
ATOM     55  C   UNL     1     149.091 165.915 196.448  0.00  0.00    -0.062 A 
ATOM     56  C   UNL     1     150.459 165.658 196.412  0.00  0.00    -0.062 A 
ATOM     57  C   UNL     1     151.115 165.573 195.187  0.00  0.00    -0.062 A 
ATOM     58  C   UNL     1     150.402 165.735 193.997  0.00  0.00    -0.059 A 
ATOM     59  H   UNL     1     147.313 166.285 195.315  0.00  0.00    +0.062 HD
ATOM     60  H   UNL     1     148.577 165.983 197.403  0.00  0.00    +0.062 HD
ATOM     61  H   UNL     1     151.013 165.523 197.337  0.00  0.00    +0.062 HD
ATOM     62  H   UNL     1     152.180 165.364 195.152  0.00  0.00    +0.062 HD
ATOM     63  H   UNL     1     150.937 165.646 193.053  0.00  0.00    +0.062 HD
ENDBRANCH  50  53
ENDBRANCH  21  50
BRANCH  15  64
ATOM     64  O   UNL     1     143.553 166.589 186.709  0.00  0.00    -0.377 OA
ATOM     65  H   UNL     1     144.155 165.863 186.970  0.00  0.00    +0.211 HD
ENDBRANCH  15  64
BRANCH   6  66
ATOM     66  O   UNL     1     147.583 172.222 190.341  0.00  0.00    -0.387 OA
ATOM     67  H   UNL     1     148.551 172.284 190.263  0.00  0.00    +0.210 HD
ENDBRANCH   6  66
BRANCH  12  68
ATOM     68  O   UNL     1     148.241 167.894 187.938  0.00  0.00    -0.456 OA
BRANCH  68  69
ATOM     69  C   UNL     1     149.268 167.077 187.603  0.00  0.00    +0.305 C 
ATOM     70  O   UNL     1     150.030 166.516 188.373  0.00  0.00    -0.251 OA
BRANCH  69  71
ATOM     71  C   UNL     1     149.339 166.943 186.112  0.00  0.00    +0.033 C 
ATOM     72  H   UNL     1     149.362 165.888 185.829  0.00  0.00    +0.034 HD
ATOM     73  H   UNL     1     150.225 167.459 185.738  0.00  0.00    +0.034 HD
ATOM     74  H   UNL     1     148.445 167.390 185.667  0.00  0.00    +0.034 HD
ENDBRANCH  69  71
ENDBRANCH  68  69
ENDBRANCH  12  68
TORSDOF 10
ENDMDL
MODEL 4
REMARK VINA RESULT:      -6.5      2.819      4.952
REMARK  Name = Cytochalasin D_conf2
REMARK  10 active torsions:
REMARK  status: ('A' for Active; 'I' for Inactive)
REMARK    1  A    between atoms: C_1  and  C_2
REMARK    2  A    between atoms: C_7  and  O_37
REMARK    3  A    between atoms: C_10  and  C_36
REMARK    4  A    between atoms: C_13  and  O_21
REMARK    5  A    between atoms: C_16  and  C_19
REMARK    6  A    between atoms: C_16  and  O_20
REMARK    7  A    between atoms: O_21  and  C_22
REMARK    8  A    between atoms: C_22  and  C_24
REMARK    9  A    between atoms: C_28  and  C_29
REMARK   10  A    between atoms: C_29  and  C_30
REMARK                            x       y       z     vdW  Elec       q    Type
REMARK                         _______ _______ _______ _____ _____    ______ ____
ROOT
ATOM      1  C   UNL     1     151.925 166.196 192.943  0.00  0.00    +0.021 C 
ATOM      2  C   UNL     1     150.686 166.150 193.852  0.00  0.00    -0.025 C 
ATOM      3  C   UNL     1     149.423 165.833 193.094  0.00  0.00    -0.087 C 
ATOM      4  C   UNL     1     148.451 166.729 192.849  0.00  0.00    -0.081 C 
ATOM      5  C   UNL     1     147.168 166.423 192.076  0.00  0.00    +0.025 C 
ATOM      6  C   UNL     1     145.951 166.566 193.035  0.00  0.00    +0.084 C 
ATOM      7  C   UNL     1     144.614 166.363 192.351  0.00  0.00    -0.045 C 
ATOM      8  C   UNL     1     143.468 166.580 193.024  0.00  0.00    -0.097 C 
ATOM      9  C   UNL     1     144.698 165.925 190.903  0.00  0.00    -0.015 C 
ATOM     10  C   UNL     1     145.533 166.954 190.099  0.00  0.00    +0.002 C 
ATOM     11  C   UNL     1     146.962 167.234 190.739  0.00  0.00    +0.101 C 
ATOM     12  C   UNL     1     148.066 166.929 189.665  0.00  0.00    +0.136 C 
ATOM     13  C   UNL     1     149.432 167.528 189.939  0.00  0.00    -0.044 C 
ATOM     14  C   UNL     1     150.570 166.860 190.208  0.00  0.00    -0.046 C 
ATOM     15  C   UNL     1     151.883 167.477 190.614  0.00  0.00    +0.139 C 
ATOM     16  C   UNL     1     151.965 167.513 192.165  0.00  0.00    +0.171 C 
ATOM     17  O   UNL     1     152.056 168.598 192.754  0.00  0.00    -0.294 OA
ATOM     18  C   UNL     1     146.891 168.727 191.051  0.00  0.00    +0.224 C 
ATOM     19  O   UNL     1     147.726 169.407 191.627  0.00  0.00    -0.275 OA
ATOM     20  N   UNL     1     145.705 169.251 190.630  0.00  0.00    -0.311 N 
ATOM     21  C   UNL     1     144.834 168.330 189.972  0.00  0.00    +0.032 C 
ATOM     22  H   UNL     1     151.907 165.352 192.245  0.00  0.00    +0.038 HD
ATOM     23  H   UNL     1     150.811 165.368 194.610  0.00  0.00    +0.031 HD
ATOM     24  H   UNL     1     150.574 167.094 194.401  0.00  0.00    +0.031 HD
ATOM     25  H   UNL     1     149.319 164.812 192.729  0.00  0.00    +0.057 HD
ATOM     26  H   UNL     1     148.570 167.747 193.222  0.00  0.00    +0.057 HD
ATOM     27  H   UNL     1     147.227 165.356 191.812  0.00  0.00    +0.038 HD
ATOM     28  H   UNL     1     145.962 167.550 193.521  0.00  0.00    +0.065 HD
ATOM     29  H   UNL     1     142.487 166.446 192.584  0.00  0.00    +0.054 HD
ATOM     30  H   UNL     1     143.491 166.883 194.068  0.00  0.00    +0.054 HD
ATOM     31  H   UNL     1     145.243 164.969 190.888  0.00  0.00    +0.035 HD
ATOM     32  H   UNL     1     145.646 166.529 189.098  0.00  0.00    +0.034 HD
ATOM     33  H   UNL     1     147.763 167.332 188.693  0.00  0.00    +0.079 HD
ATOM     34  H   UNL     1     149.462 168.617 189.937  0.00  0.00    +0.061 HD
ATOM     35  H   UNL     1     150.547 165.773 190.214  0.00  0.00    +0.060 HD
ATOM     36  H   UNL     1     145.493 170.227 190.805  0.00  0.00    +0.149 HD
ATOM     37  H   UNL     1     143.904 168.355 190.549  0.00  0.00    +0.050 HD
ENDROOT
BRANCH   1  38
ATOM     38  C   UNL     1     153.207 166.091 193.770  0.00  0.00    -0.055 C 
ATOM     39  H   UNL     1     153.069 166.536 194.762  0.00  0.00    +0.024 HD
ATOM     40  H   UNL     1     154.031 166.615 193.277  0.00  0.00    +0.024 HD
ATOM     41  H   UNL     1     153.507 165.047 193.916  0.00  0.00    +0.024 HD
ENDBRANCH   1  38
BRANCH  15  42
ATOM     42  C   UNL     1     153.077 166.733 190.019  0.00  0.00    -0.025 C 
ATOM     43  H   UNL     1     153.022 165.664 190.257  0.00  0.00    +0.026 HD
ATOM     44  H   UNL     1     154.019 167.101 190.442  0.00  0.00    +0.026 HD
ATOM     45  H   UNL     1     153.132 166.829 188.930  0.00  0.00    +0.026 HD
ENDBRANCH  15  42
BRANCH   9  46
ATOM     46  C   UNL     1     143.363 165.618 190.206  0.00  0.00    -0.058 C 
ATOM     47  H   UNL     1     143.477 165.431 189.135  0.00  0.00    +0.024 HD
ATOM     48  H   UNL     1     142.662 166.451 190.329  0.00  0.00    +0.024 HD
ATOM     49  H   UNL     1     142.894 164.732 190.651  0.00  0.00    +0.024 HD
ENDBRANCH   9  46
BRANCH  21  50
ATOM     50  C   UNL     1     144.466 168.764 188.536  0.00  0.00    -0.009 C 
ATOM     51  H   UNL     1     143.516 168.290 188.258  0.00  0.00    +0.033 HD
ATOM     52  H   UNL     1     144.260 169.843 188.537  0.00  0.00    +0.033 HD
BRANCH  50  53
ATOM     53  C   UNL     1     145.492 168.505 187.459  0.00  0.00    -0.046 A 
ATOM     54  C   UNL     1     146.524 169.422 187.209  0.00  0.00    -0.059 A 
ATOM     55  C   UNL     1     147.478 169.170 186.222  0.00  0.00    -0.062 A 
ATOM     56  C   UNL     1     147.406 168.005 185.463  0.00  0.00    -0.062 A 
ATOM     57  C   UNL     1     146.376 167.096 185.687  0.00  0.00    -0.062 A 
ATOM     58  C   UNL     1     145.422 167.346 186.676  0.00  0.00    -0.059 A 
ATOM     59  H   UNL     1     146.599 170.341 187.784  0.00  0.00    +0.062 HD
ATOM     60  H   UNL     1     148.281 169.882 186.048  0.00  0.00    +0.062 HD
ATOM     61  H   UNL     1     148.152 167.805 184.699  0.00  0.00    +0.062 HD
ATOM     62  H   UNL     1     146.319 166.181 185.103  0.00  0.00    +0.062 HD
ATOM     63  H   UNL     1     144.638 166.610 186.841  0.00  0.00    +0.062 HD
ENDBRANCH  50  53
ENDBRANCH  21  50
BRANCH  15  64
ATOM     64  O   UNL     1     151.951 168.816 190.115  0.00  0.00    -0.377 OA
ATOM     65  H   UNL     1     151.370 168.834 189.327  0.00  0.00    +0.211 HD
ENDBRANCH  15  64
BRANCH   6  66
ATOM     66  O   UNL     1     146.030 165.569 194.059  0.00  0.00    -0.387 OA
ATOM     67  H   UNL     1     146.651 165.906 194.729  0.00  0.00    +0.210 HD
ENDBRANCH   6  66
BRANCH  12  68
ATOM     68  O   UNL     1     148.234 165.487 189.579  0.00  0.00    -0.456 OA
BRANCH  68  69
ATOM     69  C   UNL     1     148.096 164.870 188.381  0.00  0.00    +0.305 C 
ATOM     70  O   UNL     1     148.868 164.934 187.438  0.00  0.00    -0.251 OA
BRANCH  69  71
ATOM     71  C   UNL     1     146.832 164.064 188.372  0.00  0.00    +0.033 C 
ATOM     72  H   UNL     1     146.216 164.322 189.236  0.00  0.00    +0.034 HD
ATOM     73  H   UNL     1     147.075 163.000 188.377  0.00  0.00    +0.034 HD
ATOM     74  H   UNL     1     146.260 164.300 187.469  0.00  0.00    +0.034 HD
ENDBRANCH  69  71
ENDBRANCH  68  69
ENDBRANCH  12  68
TORSDOF 10
ENDMDL
MODEL 5
REMARK VINA RESULT:      -6.4      2.861      7.380
REMARK  Name = Cytochalasin D_conf2
REMARK  10 active torsions:
REMARK  status: ('A' for Active; 'I' for Inactive)
REMARK    1  A    between atoms: C_1  and  C_2
REMARK    2  A    between atoms: C_7  and  O_37
REMARK    3  A    between atoms: C_10  and  C_36
REMARK    4  A    between atoms: C_13  and  O_21
REMARK    5  A    between atoms: C_16  and  C_19
REMARK    6  A    between atoms: C_16  and  O_20
REMARK    7  A    between atoms: O_21  and  C_22
REMARK    8  A    between atoms: C_22  and  C_24
REMARK    9  A    between atoms: C_28  and  C_29
REMARK   10  A    between atoms: C_29  and  C_30
REMARK                            x       y       z     vdW  Elec       q    Type
REMARK                         _______ _______ _______ _____ _____    ______ ____
ROOT
ATOM      1  C   UNL     1     144.487 167.911 187.015  0.00  0.00    +0.021 C 
ATOM      2  C   UNL     1     144.707 169.187 187.844  0.00  0.00    -0.025 C 
ATOM      3  C   UNL     1     146.107 169.288 188.392  0.00  0.00    -0.087 C 
ATOM      4  C   UNL     1     146.417 169.128 189.690  0.00  0.00    -0.081 C 
ATOM      5  C   UNL     1     147.833 169.222 190.258  0.00  0.00    +0.025 C 
ATOM      6  C   UNL     1     147.915 170.443 191.219  0.00  0.00    +0.084 C 
ATOM      7  C   UNL     1     149.259 170.585 191.905  0.00  0.00    -0.045 C 
ATOM      8  C   UNL     1     149.439 171.519 192.858  0.00  0.00    -0.097 C 
ATOM      9  C   UNL     1     150.320 169.608 191.439  0.00  0.00    -0.015 C 
ATOM     10  C   UNL     1     149.802 168.157 191.620  0.00  0.00    +0.002 C 
ATOM     11  C   UNL     1     148.392 167.907 190.930  0.00  0.00    +0.101 C 
ATOM     12  C   UNL     1     148.530 166.717 189.915  0.00  0.00    +0.136 C 
ATOM     13  C   UNL     1     147.228 166.067 189.485  0.00  0.00    -0.044 C 
ATOM     14  C   UNL     1     146.690 166.072 188.250  0.00  0.00    -0.046 C 
ATOM     15  C   UNL     1     145.331 165.541 187.875  0.00  0.00    +0.139 C 
ATOM     16  C   UNL     1     144.301 166.704 187.936  0.00  0.00    +0.171 C 
ATOM     17  O   UNL     1     143.350 166.646 188.726  0.00  0.00    -0.294 OA
ATOM     18  C   UNL     1     147.512 167.524 192.117  0.00  0.00    +0.224 C 
ATOM     19  O   UNL     1     146.310 167.309 192.113  0.00  0.00    -0.275 OA
ATOM     20  N   UNL     1     148.244 167.485 193.266  0.00  0.00    -0.311 N 
ATOM     21  C   UNL     1     149.637 167.758 193.108  0.00  0.00    +0.032 C 
ATOM     22  H   UNL     1     145.344 167.745 186.352  0.00  0.00    +0.038 HD
ATOM     23  H   UNL     1     144.543 170.071 187.216  0.00  0.00    +0.031 HD
ATOM     24  H   UNL     1     143.974 169.249 188.658  0.00  0.00    +0.031 HD
ATOM     25  H   UNL     1     146.896 169.498 187.672  0.00  0.00    +0.057 HD
ATOM     26  H   UNL     1     145.615 168.918 190.399  0.00  0.00    +0.057 HD
ATOM     27  H   UNL     1     148.482 169.459 189.402  0.00  0.00    +0.038 HD
ATOM     28  H   UNL     1     147.126 170.385 191.979  0.00  0.00    +0.065 HD
ATOM     29  H   UNL     1     150.379 171.664 193.376  0.00  0.00    +0.054 HD
ATOM     30  H   UNL     1     148.629 172.192 193.129  0.00  0.00    +0.054 HD
ATOM     31  H   UNL     1     150.462 169.779 190.362  0.00  0.00    +0.035 HD
ATOM     32  H   UNL     1     150.561 167.513 191.171  0.00  0.00    +0.034 HD
ATOM     33  H   UNL     1     149.120 165.911 190.363  0.00  0.00    +0.079 HD
ATOM     34  H   UNL     1     146.678 165.572 190.285  0.00  0.00    +0.061 HD
ATOM     35  H   UNL     1     147.232 166.567 187.448  0.00  0.00    +0.060 HD
ATOM     36  H   UNL     1     147.788 167.284 194.149  0.00  0.00    +0.149 HD
ATOM     37  H   UNL     1     149.837 168.608 193.769  0.00  0.00    +0.050 HD
ENDROOT
BRANCH   1  38
ATOM     38  C   UNL     1     143.240 168.041 186.140  0.00  0.00    -0.055 C 
ATOM     39  H   UNL     1     143.390 167.551 185.171  0.00  0.00    +0.024 HD
ATOM     40  H   UNL     1     143.005 169.093 185.953  0.00  0.00    +0.024 HD
ATOM     41  H   UNL     1     142.367 167.576 186.612  0.00  0.00    +0.024 HD
ENDBRANCH   1  38
BRANCH  15  42
ATOM     42  C   UNL     1     145.331 164.880 186.499  0.00  0.00    -0.025 C 
ATOM     43  H   UNL     1     144.416 164.294 186.354  0.00  0.00    +0.026 HD
ATOM     44  H   UNL     1     146.170 164.181 186.400  0.00  0.00    +0.026 HD
ATOM     45  H   UNL     1     145.394 165.607 185.683  0.00  0.00    +0.026 HD
ENDBRANCH  15  42
BRANCH   9  46
ATOM     46  C   UNL     1     151.721 169.784 192.045  0.00  0.00    -0.058 C 
ATOM     47  H   UNL     1     152.479 169.176 191.544  0.00  0.00    +0.024 HD
ATOM     48  H   UNL     1     151.720 169.512 193.106  0.00  0.00    +0.024 HD
ATOM     49  H   UNL     1     152.037 170.832 191.980  0.00  0.00    +0.024 HD
ENDBRANCH   9  46
BRANCH  21  50
ATOM     50  C   UNL     1     150.540 166.605 193.596  0.00  0.00    -0.009 C 
ATOM     51  H   UNL     1     150.916 166.852 194.597  0.00  0.00    +0.033 HD
ATOM     52  H   UNL     1     149.922 165.707 193.732  0.00  0.00    +0.033 HD
BRANCH  50  53
ATOM     53  C   UNL     1     151.698 166.219 192.705  0.00  0.00    -0.046 A 
ATOM     54  C   UNL     1     152.982 166.736 192.926  0.00  0.00    -0.059 A 
ATOM     55  C   UNL     1     154.051 166.364 192.109  0.00  0.00    -0.062 A 
ATOM     56  C   UNL     1     153.847 165.480 191.053  0.00  0.00    -0.062 A 
ATOM     57  C   UNL     1     152.573 164.974 190.810  0.00  0.00    -0.062 A 
ATOM     58  C   UNL     1     151.504 165.344 191.629  0.00  0.00    -0.059 A 
ATOM     59  H   UNL     1     153.167 167.432 193.741  0.00  0.00    +0.062 HD
ATOM     60  H   UNL     1     155.045 166.761 192.300  0.00  0.00    +0.062 HD
ATOM     61  H   UNL     1     154.680 165.185 190.421  0.00  0.00    +0.062 HD
ATOM     62  H   UNL     1     152.409 164.277 189.993  0.00  0.00    +0.062 HD
ATOM     63  H   UNL     1     150.522 164.920 191.427  0.00  0.00    +0.062 HD
ENDBRANCH  50  53
ENDBRANCH  21  50
BRANCH  15  64
ATOM     64  O   UNL     1     144.944 164.530 188.811  0.00  0.00    -0.377 OA
ATOM     65  H   UNL     1     144.087 164.183 188.486  0.00  0.00    +0.211 HD
ENDBRANCH  15  64
BRANCH   6  66
ATOM     66  O   UNL     1     147.719 171.650 190.474  0.00  0.00    -0.387 OA
ATOM     67  H   UNL     1     147.596 172.363 191.124  0.00  0.00    +0.210 HD
ENDBRANCH   6  66
BRANCH  12  68
ATOM     68  O   UNL     1     149.185 167.212 188.715  0.00  0.00    -0.456 OA
BRANCH  68  69
ATOM     69  C   UNL     1     150.225 166.520 188.190  0.00  0.00    +0.305 C 
ATOM     70  O   UNL     1     150.169 165.432 187.641  0.00  0.00    -0.251 OA
BRANCH  69  71
ATOM     71  C   UNL     1     151.491 167.301 188.370  0.00  0.00    +0.033 C 
ATOM     72  H   UNL     1     152.117 167.216 187.478  0.00  0.00    +0.034 HD
ATOM     73  H   UNL     1     152.026 166.936 189.249  0.00  0.00    +0.034 HD
ATOM     74  H   UNL     1     151.246 168.358 188.509  0.00  0.00    +0.034 HD
ENDBRANCH  69  71
ENDBRANCH  68  69
ENDBRANCH  12  68
TORSDOF 10
ENDMDL
MODEL 6
REMARK VINA RESULT:      -6.2      2.962      5.999
REMARK  Name = Cytochalasin D_conf2
REMARK  10 active torsions:
REMARK  status: ('A' for Active; 'I' for Inactive)
REMARK    1  A    between atoms: C_1  and  C_2
REMARK    2  A    between atoms: C_7  and  O_37
REMARK    3  A    between atoms: C_10  and  C_36
REMARK    4  A    between atoms: C_13  and  O_21
REMARK    5  A    between atoms: C_16  and  C_19
REMARK    6  A    between atoms: C_16  and  O_20
REMARK    7  A    between atoms: O_21  and  C_22
REMARK    8  A    between atoms: C_22  and  C_24
REMARK    9  A    between atoms: C_28  and  C_29
REMARK   10  A    between atoms: C_29  and  C_30
REMARK                            x       y       z     vdW  Elec       q    Type
REMARK                         _______ _______ _______ _____ _____    ______ ____
ROOT
ATOM      1  C   UNL     1     151.542 166.663 187.410  0.00  0.00    +0.021 C 
ATOM      2  C   UNL     1     150.273 166.565 186.547  0.00  0.00    -0.025 C 
ATOM      3  C   UNL     1     149.106 167.308 187.144  0.00  0.00    -0.087 C 
ATOM      4  C   UNL     1     148.037 166.705 187.693  0.00  0.00    -0.081 C 
ATOM      5  C   UNL     1     146.849 167.446 188.308  0.00  0.00    +0.025 C 
ATOM      6  C   UNL     1     145.575 167.151 187.465  0.00  0.00    +0.084 C 
ATOM      7  C   UNL     1     144.315 167.773 188.033  0.00  0.00    -0.045 C 
ATOM      8  C   UNL     1     143.117 167.500 187.484  0.00  0.00    -0.097 C 
ATOM      9  C   UNL     1     144.534 168.676 189.231  0.00  0.00    -0.015 C 
ATOM     10  C   UNL     1     145.265 167.887 190.348  0.00  0.00    +0.002 C 
ATOM     11  C   UNL     1     146.607 167.196 189.847  0.00  0.00    +0.101 C 
ATOM     12  C   UNL     1     147.797 167.698 190.740  0.00  0.00    +0.136 C 
ATOM     13  C   UNL     1     149.054 166.850 190.695  0.00  0.00    -0.044 C 
ATOM     14  C   UNL     1     150.256 167.209 190.204  0.00  0.00    -0.046 C 
ATOM     15  C   UNL     1     151.451 166.306 190.043  0.00  0.00    +0.139 C 
ATOM     16  C   UNL     1     151.445 165.715 188.606  0.00  0.00    +0.171 C 
ATOM     17  O   UNL     1     151.358 164.490 188.443  0.00  0.00    -0.294 OA
ATOM     18  C   UNL     1     146.320 165.716 190.087  0.00  0.00    +0.224 C 
ATOM     19  O   UNL     1     147.024 164.764 189.790  0.00  0.00    -0.275 OA
ATOM     20  N   UNL     1     145.098 165.550 190.669  0.00  0.00    -0.311 N 
ATOM     21  C   UNL     1     144.395 166.760 190.957  0.00  0.00    +0.032 C 
ATOM     22  H   UNL     1     151.674 167.693 187.762  0.00  0.00    +0.038 HD
ATOM     23  H   UNL     1     150.462 167.003 185.559  0.00  0.00    +0.031 HD
ATOM     24  H   UNL     1     150.007 165.515 186.370  0.00  0.00    +0.031 HD
ATOM     25  H   UNL     1     149.159 168.395 187.121  0.00  0.00    +0.057 HD
ATOM     26  H   UNL     1     147.998 165.616 187.707  0.00  0.00    +0.057 HD
ATOM     27  H   UNL     1     147.065 168.517 188.175  0.00  0.00    +0.038 HD
ATOM     28  H   UNL     1     145.428 166.068 187.361  0.00  0.00    +0.065 HD
ATOM     29  H   UNL     1     142.187 167.921 187.849  0.00  0.00    +0.054 HD
ATOM     30  H   UNL     1     143.044 166.849 186.616  0.00  0.00    +0.054 HD
ATOM     31  H   UNL     1     145.202 169.486 188.903  0.00  0.00    +0.035 HD
ATOM     32  H   UNL     1     145.486 168.616 191.131  0.00  0.00    +0.034 HD
ATOM     33  H   UNL     1     147.495 167.711 191.792  0.00  0.00    +0.079 HD
ATOM     34  H   UNL     1     148.937 165.839 191.085  0.00  0.00    +0.061 HD
ATOM     35  H   UNL     1     150.378 168.215 189.811  0.00  0.00    +0.060 HD
ATOM     36  H   UNL     1     144.748 164.618 190.853  0.00  0.00    +0.149 HD
ATOM     37  H   UNL     1     143.440 166.668 190.428  0.00  0.00    +0.050 HD
ENDROOT
BRANCH   1  38
ATOM     38  C   UNL     1     152.780 166.285 186.599  0.00  0.00    -0.055 C 
ATOM     39  H   UNL     1     152.497 165.873 185.623  0.00  0.00    +0.024 HD
ATOM     40  H   UNL     1     153.374 165.531 187.124  0.00  0.00    +0.024 HD
ATOM     41  H   UNL     1     153.422 167.154 186.414  0.00  0.00    +0.024 HD
ENDBRANCH   1  38
BRANCH  15  42
ATOM     42  C   UNL     1     152.763 167.031 190.332  0.00  0.00    -0.025 C 
ATOM     43  H   UNL     1     152.572 167.992 190.824  0.00  0.00    +0.026 HD
ATOM     44  H   UNL     1     153.300 167.257 189.403  0.00  0.00    +0.026 HD
ATOM     45  H   UNL     1     153.430 166.453 190.979  0.00  0.00    +0.026 HD
ENDBRANCH  15  42
BRANCH   9  46
ATOM     46  C   UNL     1     143.291 169.398 189.774  0.00  0.00    -0.058 C 
ATOM     47  H   UNL     1     142.357 169.003 189.362  0.00  0.00    +0.024 HD
ATOM     48  H   UNL     1     143.333 170.468 189.542  0.00  0.00    +0.024 HD
ATOM     49  H   UNL     1     143.239 169.304 190.865  0.00  0.00    +0.024 HD
ENDBRANCH   9  46
BRANCH  21  50
ATOM     50  C   UNL     1     144.048 166.918 192.453  0.00  0.00    -0.009 C 
ATOM     51  H   UNL     1     143.799 167.969 192.648  0.00  0.00    +0.033 HD
ATOM     52  H   UNL     1     143.124 166.359 192.661  0.00  0.00    +0.033 HD
BRANCH  50  53
ATOM     53  C   UNL     1     145.084 166.453 193.449  0.00  0.00    -0.046 A 
ATOM     54  C   UNL     1     146.313 167.115 193.574  0.00  0.00    -0.059 A 
ATOM     55  C   UNL     1     147.261 166.690 194.507  0.00  0.00    -0.062 A 
ATOM     56  C   UNL     1     146.997 165.590 195.318  0.00  0.00    -0.062 A 
ATOM     57  C   UNL     1     145.788 164.911 195.191  0.00  0.00    -0.062 A 
ATOM     58  C   UNL     1     144.839 165.337 194.260  0.00  0.00    -0.059 A 
ATOM     59  H   UNL     1     146.546 167.974 192.949  0.00  0.00    +0.062 HD
ATOM     60  H   UNL     1     148.205 167.221 194.603  0.00  0.00    +0.062 HD
ATOM     61  H   UNL     1     147.731 165.262 196.048  0.00  0.00    +0.062 HD
ATOM     62  H   UNL     1     145.573 164.056 195.827  0.00  0.00    +0.062 HD
ATOM     63  H   UNL     1     143.895 164.798 194.194  0.00  0.00    +0.062 HD
ENDBRANCH  50  53
ENDBRANCH  21  50
BRANCH  15  64
ATOM     64  O   UNL     1     151.365 165.234 190.986  0.00  0.00    -0.377 OA
ATOM     65  H   UNL     1     150.581 165.431 191.540  0.00  0.00    +0.211 HD
ENDBRANCH  15  64
BRANCH   6  66
ATOM     66  O   UNL     1     145.733 167.700 186.153  0.00  0.00    -0.387 OA
ATOM     67  H   UNL     1     146.667 167.961 186.070  0.00  0.00    +0.210 HD
ENDBRANCH   6  66
BRANCH  12  68
ATOM     68  O   UNL     1     148.161 169.037 190.307  0.00  0.00    -0.456 OA
BRANCH  68  69
ATOM     69  C   UNL     1     147.852 170.099 191.090  0.00  0.00    +0.305 C 
ATOM     70  O   UNL     1     148.065 170.203 192.287  0.00  0.00    -0.251 OA
BRANCH  69  71
ATOM     71  C   UNL     1     147.203 171.165 190.260  0.00  0.00    +0.033 C 
ATOM     72  H   UNL     1     147.342 172.142 190.727  0.00  0.00    +0.034 HD
ATOM     73  H   UNL     1     146.141 170.943 190.144  0.00  0.00    +0.034 HD
ATOM     74  H   UNL     1     147.677 171.193 189.274  0.00  0.00    +0.034 HD
ENDBRANCH  69  71
ENDBRANCH  68  69
ENDBRANCH  12  68
TORSDOF 10
ENDMDL
MODEL 7
REMARK VINA RESULT:      -6.1     17.845     20.938
REMARK  Name = Cytochalasin D_conf2
REMARK  10 active torsions:
REMARK  status: ('A' for Active; 'I' for Inactive)
REMARK    1  A    between atoms: C_1  and  C_2
REMARK    2  A    between atoms: C_7  and  O_37
REMARK    3  A    between atoms: C_10  and  C_36
REMARK    4  A    between atoms: C_13  and  O_21
REMARK    5  A    between atoms: C_16  and  C_19
REMARK    6  A    between atoms: C_16  and  O_20
REMARK    7  A    between atoms: O_21  and  C_22
REMARK    8  A    between atoms: C_22  and  C_24
REMARK    9  A    between atoms: C_28  and  C_29
REMARK   10  A    between atoms: C_29  and  C_30
REMARK                            x       y       z     vdW  Elec       q    Type
REMARK                         _______ _______ _______ _____ _____    ______ ____
ROOT
ATOM      1  C   UNL     1     132.840 173.398 197.624  0.00  0.00    +0.021 C 
ATOM      2  C   UNL     1     132.124 173.631 198.965  0.00  0.00    -0.025 C 
ATOM      3  C   UNL     1     132.767 174.720 199.783  0.00  0.00    -0.087 C 
ATOM      4  C   UNL     1     133.476 174.495 200.903  0.00  0.00    -0.081 C 
ATOM      5  C   UNL     1     134.139 175.590 201.740  0.00  0.00    +0.025 C 
ATOM      6  C   UNL     1     133.463 175.639 203.140  0.00  0.00    +0.084 C 
ATOM      7  C   UNL     1     134.098 176.639 204.085  0.00  0.00    -0.045 C 
ATOM      8  C   UNL     1     133.702 176.703 205.371  0.00  0.00    -0.097 C 
ATOM      9  C   UNL     1     135.178 177.504 203.468  0.00  0.00    -0.015 C 
ATOM     10  C   UNL     1     136.282 176.600 202.861  0.00  0.00    +0.002 C 
ATOM     11  C   UNL     1     135.712 175.513 201.849  0.00  0.00    +0.101 C 
ATOM     12  C   UNL     1     136.428 175.690 200.462  0.00  0.00    +0.136 C 
ATOM     13  C   UNL     1     136.332 174.505 199.520  0.00  0.00    -0.044 C 
ATOM     14  C   UNL     1     135.689 174.462 198.337  0.00  0.00    -0.046 C 
ATOM     15  C   UNL     1     135.490 173.237 197.482  0.00  0.00    +0.139 C 
ATOM     16  C   UNL     1     134.122 172.592 197.839  0.00  0.00    +0.171 C 
ATOM     17  O   UNL     1     134.082 171.441 198.295  0.00  0.00    -0.294 OA
ATOM     18  C   UNL     1     136.116 174.202 202.518  0.00  0.00    +0.224 C 
ATOM     19  O   UNL     1     135.837 173.068 202.161  0.00  0.00    -0.275 OA
ATOM     20  N   UNL     1     136.833 174.441 203.653  0.00  0.00    -0.311 N 
ATOM     21  C   UNL     1     137.079 175.819 203.935  0.00  0.00    +0.032 C 
ATOM     22  H   UNL     1     133.079 174.360 197.158  0.00  0.00    +0.038 HD
ATOM     23  H   UNL     1     131.086 173.935 198.783  0.00  0.00    +0.031 HD
ATOM     24  H   UNL     1     132.074 172.699 199.542  0.00  0.00    +0.031 HD
ATOM     25  H   UNL     1     132.639 175.739 199.422  0.00  0.00    +0.057 HD
ATOM     26  H   UNL     1     133.595 173.470 201.252  0.00  0.00    +0.057 HD
ATOM     27  H   UNL     1     133.887 176.539 201.243  0.00  0.00    +0.038 HD
ATOM     28  H   UNL     1     133.475 174.645 203.605  0.00  0.00    +0.065 HD
ATOM     29  H   UNL     1     134.120 177.402 206.086  0.00  0.00    +0.054 HD
ATOM     30  H   UNL     1     132.910 176.053 205.737  0.00  0.00    +0.054 HD
ATOM     31  H   UNL     1     134.710 178.059 202.641  0.00  0.00    +0.035 HD
ATOM     32  H   UNL     1     136.967 177.274 202.342  0.00  0.00    +0.034 HD
ATOM     33  H   UNL     1     137.499 175.853 200.614  0.00  0.00    +0.079 HD
ATOM     34  H   UNL     1     136.824 173.599 199.872  0.00  0.00    +0.061 HD
ATOM     35  H   UNL     1     135.194 175.362 197.979  0.00  0.00    +0.060 HD
ATOM     36  H   UNL     1     137.137 173.666 204.230  0.00  0.00    +0.149 HD
ATOM     37  H   UNL     1     136.661 175.984 204.934  0.00  0.00    +0.050 HD
ENDROOT
BRANCH   1  38
ATOM     38  C   UNL     1     131.944 172.622 196.659  0.00  0.00    -0.055 C 
ATOM     39  H   UNL     1     132.536 172.163 195.859  0.00  0.00    +0.024 HD
ATOM     40  H   UNL     1     131.207 173.284 196.195  0.00  0.00    +0.024 HD
ATOM     41  H   UNL     1     131.403 171.817 197.170  0.00  0.00    +0.024 HD
ENDBRANCH   1  38
BRANCH  15  42
ATOM     42  C   UNL     1     135.574 173.555 195.992  0.00  0.00    -0.025 C 
ATOM     43  H   UNL     1     134.670 173.215 195.474  0.00  0.00    +0.026 HD
ATOM     44  H   UNL     1     136.418 173.032 195.526  0.00  0.00    +0.026 HD
ATOM     45  H   UNL     1     135.687 174.626 195.796  0.00  0.00    +0.026 HD
ENDBRANCH  15  42
BRANCH   9  46
ATOM     46  C   UNL     1     135.777 178.593 204.371  0.00  0.00    -0.058 C 
ATOM     47  H   UNL     1     136.715 178.999 203.981  0.00  0.00    +0.024 HD
ATOM     48  H   UNL     1     135.974 178.198 205.374  0.00  0.00    +0.024 HD
ATOM     49  H   UNL     1     135.074 179.427 204.484  0.00  0.00    +0.024 HD
ENDBRANCH   9  46
BRANCH  21  50
ATOM     50  C   UNL     1     138.582 176.160 204.031  0.00  0.00    -0.009 C 
ATOM     51  H   UNL     1     138.911 176.012 205.068  0.00  0.00    +0.033 HD
ATOM     52  H   UNL     1     139.148 175.425 203.442  0.00  0.00    +0.033 HD
BRANCH  50  53
ATOM     53  C   UNL     1     139.005 177.531 203.560  0.00  0.00    -0.046 A 
ATOM     54  C   UNL     1     139.134 177.816 202.193  0.00  0.00    -0.059 A 
ATOM     55  C   UNL     1     139.510 179.090 201.762  0.00  0.00    -0.062 A 
ATOM     56  C   UNL     1     139.775 180.091 202.693  0.00  0.00    -0.062 A 
ATOM     57  C   UNL     1     139.670 179.816 204.054  0.00  0.00    -0.062 A 
ATOM     58  C   UNL     1     139.291 178.543 204.485  0.00  0.00    -0.059 A 
ATOM     59  H   UNL     1     138.938 177.051 201.446  0.00  0.00    +0.062 HD
ATOM     60  H   UNL     1     139.593 179.302 200.700  0.00  0.00    +0.062 HD
ATOM     61  H   UNL     1     140.062 181.084 202.359  0.00  0.00    +0.062 HD
ATOM     62  H   UNL     1     139.867 180.595 204.785  0.00  0.00    +0.062 HD
ATOM     63  H   UNL     1     139.199 178.361 205.554  0.00  0.00    +0.062 HD
ENDBRANCH  50  53
ENDBRANCH  21  50
BRANCH  15  64
ATOM     64  O   UNL     1     136.532 172.295 197.755  0.00  0.00    -0.377 OA
ATOM     65  H   UNL     1     137.276 172.548 197.172  0.00  0.00    +0.211 HD
ENDBRANCH  15  64
BRANCH   6  66
ATOM     66  O   UNL     1     132.096 176.039 202.996  0.00  0.00    -0.387 OA
ATOM     67  H   UNL     1     131.552 175.277 203.260  0.00  0.00    +0.210 HD
ENDBRANCH   6  66
BRANCH  12  68
ATOM     68  O   UNL     1     135.837 176.833 199.785  0.00  0.00    -0.456 OA
BRANCH  68  69
ATOM     69  C   UNL     1     136.618 177.891 199.458  0.00  0.00    +0.305 C 
ATOM     70  O   UNL     1     137.597 177.873 198.730  0.00  0.00    -0.251 OA
BRANCH  69  71
ATOM     71  C   UNL     1     136.095 179.127 200.125  0.00  0.00    +0.033 C 
ATOM     72  H   UNL     1     135.927 178.939 201.188  0.00  0.00    +0.034 HD
ATOM     73  H   UNL     1     135.169 179.442 199.641  0.00  0.00    +0.034 HD
ATOM     74  H   UNL     1     136.838 179.926 200.039  0.00  0.00    +0.034 HD
ENDBRANCH  69  71
ENDBRANCH  68  69
ENDBRANCH  12  68
TORSDOF 10
ENDMDL
MODEL 8
REMARK VINA RESULT:      -6.1      3.041      8.592
REMARK  Name = Cytochalasin D_conf2
REMARK  10 active torsions:
REMARK  status: ('A' for Active; 'I' for Inactive)
REMARK    1  A    between atoms: C_1  and  C_2
REMARK    2  A    between atoms: C_7  and  O_37
REMARK    3  A    between atoms: C_10  and  C_36
REMARK    4  A    between atoms: C_13  and  O_21
REMARK    5  A    between atoms: C_16  and  C_19
REMARK    6  A    between atoms: C_16  and  O_20
REMARK    7  A    between atoms: O_21  and  C_22
REMARK    8  A    between atoms: C_22  and  C_24
REMARK    9  A    between atoms: C_28  and  C_29
REMARK   10  A    between atoms: C_29  and  C_30
REMARK                            x       y       z     vdW  Elec       q    Type
REMARK                         _______ _______ _______ _____ _____    ______ ____
ROOT
ATOM      1  C   UNL     1     150.230 166.612 191.730  0.00  0.00    +0.021 C 
ATOM      2  C   UNL     1     149.836 166.800 190.255  0.00  0.00    -0.025 C 
ATOM      3  C   UNL     1     150.502 165.801 189.345  0.00  0.00    -0.087 C 
ATOM      4  C   UNL     1     151.486 166.113 188.484  0.00  0.00    -0.081 C 
ATOM      5  C   UNL     1     152.174 165.109 187.559  0.00  0.00    +0.025 C 
ATOM      6  C   UNL     1     151.858 165.479 186.081  0.00  0.00    +0.084 C 
ATOM      7  C   UNL     1     152.559 164.594 185.071  0.00  0.00    -0.045 C 
ATOM      8  C   UNL     1     152.482 164.872 183.756  0.00  0.00    -0.097 C 
ATOM      9  C   UNL     1     153.327 163.430 185.666  0.00  0.00    -0.015 C 
ATOM     10  C   UNL     1     154.364 163.963 186.688  0.00  0.00    +0.002 C 
ATOM     11  C   UNL     1     153.721 164.906 187.796  0.00  0.00    +0.101 C 
ATOM     12  C   UNL     1     154.047 164.314 189.214  0.00  0.00    +0.136 C 
ATOM     13  C   UNL     1     153.890 165.275 190.377  0.00  0.00    -0.044 C 
ATOM     14  C   UNL     1     152.992 165.195 191.377  0.00  0.00    -0.046 C 
ATOM     15  C   UNL     1     152.762 166.233 192.445  0.00  0.00    +0.139 C 
ATOM     16  C   UNL     1     151.624 167.186 191.985  0.00  0.00    +0.171 C 
ATOM     17  O   UNL     1     151.856 168.392 191.825  0.00  0.00    -0.294 OA
ATOM     18  C   UNL     1     154.453 166.225 187.564  0.00  0.00    +0.224 C 
ATOM     19  O   UNL     1     154.255 167.293 188.123  0.00  0.00    -0.275 OA
ATOM     20  N   UNL     1     155.384 166.094 186.577  0.00  0.00    -0.311 N 
ATOM     21  C   UNL     1     155.498 164.782 186.023  0.00  0.00    +0.032 C 
ATOM     22  H   UNL     1     150.214 165.547 191.986  0.00  0.00    +0.038 HD
ATOM     23  H   UNL     1     148.753 166.669 190.141  0.00  0.00    +0.031 HD
ATOM     24  H   UNL     1     150.057 167.824 189.925  0.00  0.00    +0.031 HD
ATOM     25  H   UNL     1     150.150 164.773 189.412  0.00  0.00    +0.057 HD
ATOM     26  H   UNL     1     151.826 167.147 188.427  0.00  0.00    +0.057 HD
ATOM     27  H   UNL     1     151.680 164.144 187.746  0.00  0.00    +0.038 HD
ATOM     28  H   UNL     1     152.120 166.527 185.886  0.00  0.00    +0.065 HD
ATOM     29  H   UNL     1     152.961 164.270 182.993  0.00  0.00    +0.054 HD
ATOM     30  H   UNL     1     151.900 165.722 183.406  0.00  0.00    +0.054 HD
ATOM     31  H   UNL     1     152.600 162.816 186.219  0.00  0.00    +0.035 HD
ATOM     32  H   UNL     1     154.803 163.078 187.155  0.00  0.00    +0.034 HD
ATOM     33  H   UNL     1     155.090 163.985 189.250  0.00  0.00    +0.079 HD
ATOM     34  H   UNL     1     154.573 166.124 190.364  0.00  0.00    +0.061 HD
ATOM     35  H   UNL     1     152.305 164.352 191.395  0.00  0.00    +0.060 HD
ATOM     36  H   UNL     1     155.924 166.898 186.281  0.00  0.00    +0.149 HD
ATOM     37  H   UNL     1     155.317 164.909 184.951  0.00  0.00    +0.050 HD
ENDROOT
BRANCH   1  38
ATOM     38  C   UNL     1     149.242 167.328 192.650  0.00  0.00    -0.055 C 
ATOM     39  H   UNL     1     148.482 166.632 193.024  0.00  0.00    +0.024 HD
ATOM     40  H   UNL     1     148.728 168.134 192.118  0.00  0.00    +0.024 HD
ATOM     41  H   UNL     1     149.746 167.763 193.521  0.00  0.00    +0.024 HD
ENDBRANCH   1  38
BRANCH  15  42
ATOM     42  C   UNL     1     152.437 165.604 193.798  0.00  0.00    -0.025 C 
ATOM     43  H   UNL     1     152.667 166.302 194.612  0.00  0.00    +0.026 HD
ATOM     44  H   UNL     1     153.046 164.708 193.971  0.00  0.00    +0.026 HD
ATOM     45  H   UNL     1     151.383 165.323 193.889  0.00  0.00    +0.026 HD
ENDBRANCH  15  42
BRANCH   9  46
ATOM     46  C   UNL     1     153.971 162.457 184.667  0.00  0.00    -0.058 C 
ATOM     47  H   UNL     1     153.261 161.727 184.268  0.00  0.00    +0.024 HD
ATOM     48  H   UNL     1     154.791 161.905 185.139  0.00  0.00    +0.024 HD
ATOM     49  H   UNL     1     154.396 163.006 183.818  0.00  0.00    +0.024 HD
ENDBRANCH   9  46
BRANCH  21  50
ATOM     50  C   UNL     1     156.918 164.189 186.157  0.00  0.00    -0.009 C 
ATOM     51  H   UNL     1     157.070 163.456 185.354  0.00  0.00    +0.033 HD
ATOM     52  H   UNL     1     157.651 164.984 185.963  0.00  0.00    +0.033 HD
BRANCH  50  53
ATOM     53  C   UNL     1     157.277 163.564 187.484  0.00  0.00    -0.046 A 
ATOM     54  C   UNL     1     157.412 164.349 188.638  0.00  0.00    -0.059 A 
ATOM     55  C   UNL     1     157.729 163.764 189.865  0.00  0.00    -0.062 A 
ATOM     56  C   UNL     1     157.927 162.388 189.952  0.00  0.00    -0.062 A 
ATOM     57  C   UNL     1     157.815 161.600 188.810  0.00  0.00    -0.062 A 
ATOM     58  C   UNL     1     157.496 162.184 187.582  0.00  0.00    -0.059 A 
ATOM     59  H   UNL     1     157.267 165.425 188.596  0.00  0.00    +0.062 HD
ATOM     60  H   UNL     1     157.817 164.381 190.755  0.00  0.00    +0.062 HD
ATOM     61  H   UNL     1     158.168 161.931 190.907  0.00  0.00    +0.062 HD
ATOM     62  H   UNL     1     157.961 160.525 188.873  0.00  0.00    +0.062 HD
ATOM     63  H   UNL     1     157.397 161.542 186.710  0.00  0.00    +0.062 HD
ENDBRANCH  50  53
ENDBRANCH  21  50
BRANCH  15  64
ATOM     64  O   UNL     1     153.959 166.995 192.630  0.00  0.00    -0.377 OA
ATOM     65  H   UNL     1     153.698 167.931 192.507  0.00  0.00    +0.211 HD
ENDBRANCH  15  64
BRANCH   6  66
ATOM     66  O   UNL     1     150.455 165.325 185.840  0.00  0.00    -0.387 OA
ATOM     67  H   UNL     1     150.228 164.412 186.089  0.00  0.00    +0.210 HD
ENDBRANCH   6  66
BRANCH  12  68
ATOM     68  O   UNL     1     153.158 163.190 189.456  0.00  0.00    -0.456 OA
BRANCH  68  69
ATOM     69  C   UNL     1     153.589 161.931 189.199  0.00  0.00    +0.305 C 
ATOM     70  O   UNL     1     154.640 161.435 189.569  0.00  0.00    -0.251 OA
BRANCH  69  71
ATOM     71  C   UNL     1     152.564 161.205 188.382  0.00  0.00    +0.033 C 
ATOM     72  H   UNL     1     151.560 161.544 188.650  0.00  0.00    +0.034 HD
ATOM     73  H   UNL     1     152.661 160.130 188.542  0.00  0.00    +0.034 HD
ATOM     74  H   UNL     1     152.723 161.428 187.323  0.00  0.00    +0.034 HD
ENDBRANCH  69  71
ENDBRANCH  68  69
ENDBRANCH  12  68
TORSDOF 10
ENDMDL
MODEL 9
REMARK VINA RESULT:      -6.1      4.386      7.628
REMARK  Name = Cytochalasin D_conf2
REMARK  10 active torsions:
REMARK  status: ('A' for Active; 'I' for Inactive)
REMARK    1  A    between atoms: C_1  and  C_2
REMARK    2  A    between atoms: C_7  and  O_37
REMARK    3  A    between atoms: C_10  and  C_36
REMARK    4  A    between atoms: C_13  and  O_21
REMARK    5  A    between atoms: C_16  and  C_19
REMARK    6  A    between atoms: C_16  and  O_20
REMARK    7  A    between atoms: O_21  and  C_22
REMARK    8  A    between atoms: C_22  and  C_24
REMARK    9  A    between atoms: C_28  and  C_29
REMARK   10  A    between atoms: C_29  and  C_30
REMARK                            x       y       z     vdW  Elec       q    Type
REMARK                         _______ _______ _______ _____ _____    ______ ____
ROOT
ATOM      1  C   UNL     1     146.683 165.701 194.342  0.00  0.00    +0.021 C 
ATOM      2  C   UNL     1     145.192 165.870 194.006  0.00  0.00    -0.025 C 
ATOM      3  C   UNL     1     144.908 165.712 192.534  0.00  0.00    -0.087 C 
ATOM      4  C   UNL     1     144.575 166.731 191.722  0.00  0.00    -0.081 C 
ATOM      5  C   UNL     1     144.291 166.585 190.227  0.00  0.00    +0.025 C 
ATOM      6  C   UNL     1     142.801 166.941 189.957  0.00  0.00    +0.084 C 
ATOM      7  C   UNL     1     142.427 166.909 188.488  0.00  0.00    -0.045 C 
ATOM      8  C   UNL     1     141.207 167.316 188.090  0.00  0.00    -0.097 C 
ATOM      9  C   UNL     1     143.518 166.410 187.563  0.00  0.00    -0.015 C 
ATOM     10  C   UNL     1     144.791 167.275 187.749  0.00  0.00    +0.002 C 
ATOM     11  C   UNL     1     145.266 167.368 189.264  0.00  0.00    +0.101 C 
ATOM     12  C   UNL     1     146.750 166.865 189.360  0.00  0.00    +0.136 C 
ATOM     13  C   UNL     1     147.500 167.269 190.615  0.00  0.00    -0.044 C 
ATOM     14  C   UNL     1     147.950 166.452 191.587  0.00  0.00    -0.046 C 
ATOM     15  C   UNL     1     148.569 166.885 192.891  0.00  0.00    +0.139 C 
ATOM     16  C   UNL     1     147.457 166.967 193.974  0.00  0.00    +0.171 C 
ATOM     17  O   UNL     1     147.207 168.050 194.521  0.00  0.00    -0.294 OA
ATOM     18  C   UNL     1     145.170 168.866 189.543  0.00  0.00    +0.224 C 
ATOM     19  O   UNL     1     145.359 169.438 190.605  0.00  0.00    -0.275 OA
ATOM     20  N   UNL     1     144.785 169.541 188.423  0.00  0.00    -0.311 N 
ATOM     21  C   UNL     1     144.605 168.733 187.260  0.00  0.00    +0.032 C 
ATOM     22  H   UNL     1     147.092 164.843 193.798  0.00  0.00    +0.038 HD
ATOM     23  H   UNL     1     144.604 165.107 194.531  0.00  0.00    +0.031 HD
ATOM     24  H   UNL     1     144.823 166.840 194.363  0.00  0.00    +0.031 HD
ATOM     25  H   UNL     1     144.989 164.705 192.129  0.00  0.00    +0.057 HD
ATOM     26  H   UNL     1     144.498 167.733 192.143  0.00  0.00    +0.057 HD
ATOM     27  H   UNL     1     144.397 165.513 190.006  0.00  0.00    +0.038 HD
ATOM     28  H   UNL     1     142.563 167.930 190.368  0.00  0.00    +0.065 HD
ATOM     29  H   UNL     1     140.889 167.310 187.054  0.00  0.00    +0.054 HD
ATOM     30  H   UNL     1     140.473 167.651 188.819  0.00  0.00    +0.054 HD
ATOM     31  H   UNL     1     143.763 165.385 187.880  0.00  0.00    +0.035 HD
ATOM     32  H   UNL     1     145.565 166.801 187.140  0.00  0.00    +0.034 HD
ATOM     33  H   UNL     1     147.337 167.271 188.530  0.00  0.00    +0.079 HD
ATOM     34  H   UNL     1     147.656 168.341 190.730  0.00  0.00    +0.061 HD
ATOM     35  H   UNL     1     147.796 165.381 191.481  0.00  0.00    +0.060 HD
ATOM     36  H   UNL     1     144.638 170.543 188.463  0.00  0.00    +0.149 HD
ATOM     37  H   UNL     1     143.572 168.914 186.944  0.00  0.00    +0.050 HD
ENDROOT
BRANCH   1  38
ATOM     38  C   UNL     1     146.875 165.441 195.836  0.00  0.00    -0.055 C 
ATOM     39  H   UNL     1     146.460 166.262 196.432  0.00  0.00    +0.024 HD
ATOM     40  H   UNL     1     147.937 165.350 196.081  0.00  0.00    +0.024 HD
ATOM     41  H   UNL     1     146.372 164.520 196.152  0.00  0.00    +0.024 HD
ENDBRANCH   1  38
BRANCH  15  42
ATOM     42  C   UNL     1     149.695 165.954 193.331  0.00  0.00    -0.025 C 
ATOM     43  H   UNL     1     150.230 165.558 192.460  0.00  0.00    +0.026 HD
ATOM     44  H   UNL     1     149.299 165.088 193.876  0.00  0.00    +0.026 HD
ATOM     45  H   UNL     1     150.429 166.454 193.972  0.00  0.00    +0.026 HD
ENDBRANCH  15  42
BRANCH   9  46
ATOM     46  C   UNL     1     143.143 166.274 186.079  0.00  0.00    -0.058 C 
ATOM     47  H   UNL     1     143.844 165.649 185.519  0.00  0.00    +0.024 HD
ATOM     48  H   UNL     1     143.112 167.258 185.597  0.00  0.00    +0.024 HD
ATOM     49  H   UNL     1     142.145 165.831 185.975  0.00  0.00    +0.024 HD
ENDBRANCH   9  46
BRANCH  21  50
ATOM     50  C   UNL     1     145.502 169.161 186.078  0.00  0.00    -0.009 C 
ATOM     51  H   UNL     1     144.894 169.185 185.165  0.00  0.00    +0.033 HD
ATOM     52  H   UNL     1     145.823 170.200 186.239  0.00  0.00    +0.033 HD
BRANCH  50  53
ATOM     53  C   UNL     1     146.748 168.343 185.833  0.00  0.00    -0.046 A 
ATOM     54  C   UNL     1     147.951 168.644 186.486  0.00  0.00    -0.059 A 
ATOM     55  C   UNL     1     149.095 167.875 186.266  0.00  0.00    -0.062 A 
ATOM     56  C   UNL     1     149.053 166.801 185.381  0.00  0.00    -0.062 A 
ATOM     57  C   UNL     1     147.871 166.503 184.710  0.00  0.00    -0.062 A 
ATOM     58  C   UNL     1     146.725 167.270 184.931  0.00  0.00    -0.059 A 
ATOM     59  H   UNL     1     148.011 169.480 187.178  0.00  0.00    +0.062 HD
ATOM     60  H   UNL     1     150.017 168.110 186.790  0.00  0.00    +0.062 HD
ATOM     61  H   UNL     1     149.941 166.198 185.213  0.00  0.00    +0.062 HD
ATOM     62  H   UNL     1     147.830 165.661 184.024  0.00  0.00    +0.062 HD
ATOM     63  H   UNL     1     145.810 167.004 184.407  0.00  0.00    +0.062 HD
ENDBRANCH  50  53
ENDBRANCH  21  50
BRANCH  15  64
ATOM     64  O   UNL     1     149.154 168.181 192.729  0.00  0.00    -0.377 OA
ATOM     65  H   UNL     1     150.108 168.023 192.574  0.00  0.00    +0.211 HD
ENDBRANCH  15  64
BRANCH   6  66
ATOM     66  O   UNL     1     141.957 165.982 190.603  0.00  0.00    -0.387 OA
ATOM     67  H   UNL     1     142.506 165.530 191.268  0.00  0.00    +0.210 HD
ENDBRANCH   6  66
BRANCH  12  68
ATOM     68  O   UNL     1     146.745 165.412 189.306  0.00  0.00    -0.456 OA
BRANCH  68  69
ATOM     69  C   UNL     1     147.445 164.778 188.334  0.00  0.00    +0.305 C 
ATOM     70  O   UNL     1     148.659 164.756 188.212  0.00  0.00    -0.251 OA
BRANCH  69  71
ATOM     71  C   UNL     1     146.499 164.078 187.407  0.00  0.00    +0.033 C 
ATOM     72  H   UNL     1     147.043 163.662 186.556  0.00  0.00    +0.034 HD
ATOM     73  H   UNL     1     145.734 164.778 187.066  0.00  0.00    +0.034 HD
ATOM     74  H   UNL     1     146.020 163.249 187.938  0.00  0.00    +0.034 HD
ENDBRANCH  69  71
ENDBRANCH  68  69
ENDBRANCH  12  68
TORSDOF 10
ENDMDL
MODEL 10
REMARK VINA RESULT:      -5.9      5.169      8.402
REMARK  Name = Cytochalasin D_conf2
REMARK  10 active torsions:
REMARK  status: ('A' for Active; 'I' for Inactive)
REMARK    1  A    between atoms: C_1  and  C_2
REMARK    2  A    between atoms: C_7  and  O_37
REMARK    3  A    between atoms: C_10  and  C_36
REMARK    4  A    between atoms: C_13  and  O_21
REMARK    5  A    between atoms: C_16  and  C_19
REMARK    6  A    between atoms: C_16  and  O_20
REMARK    7  A    between atoms: O_21  and  C_22
REMARK    8  A    between atoms: C_22  and  C_24
REMARK    9  A    between atoms: C_28  and  C_29
REMARK   10  A    between atoms: C_29  and  C_30
REMARK                            x       y       z     vdW  Elec       q    Type
REMARK                         _______ _______ _______ _____ _____    ______ ____
ROOT
ATOM      1  C   UNL     1     155.968 168.690 182.405  0.00  0.00    +0.021 C 
ATOM      2  C   UNL     1     155.539 167.328 181.835  0.00  0.00    -0.025 C 
ATOM      3  C   UNL     1     154.707 166.530 182.805  0.00  0.00    -0.087 C 
ATOM      4  C   UNL     1     155.149 165.432 183.444  0.00  0.00    -0.081 C 
ATOM      5  C   UNL     1     154.318 164.617 184.435  0.00  0.00    +0.025 C 
ATOM      6  C   UNL     1     154.077 163.196 183.848  0.00  0.00    +0.084 C 
ATOM      7  C   UNL     1     153.329 162.271 184.787  0.00  0.00    -0.045 C 
ATOM      8  C   UNL     1     153.158 160.975 184.468  0.00  0.00    -0.097 C 
ATOM      9  C   UNL     1     152.831 162.923 186.062  0.00  0.00    -0.015 C 
ATOM     10  C   UNL     1     154.025 163.563 186.817  0.00  0.00    +0.002 C 
ATOM     11  C   UNL     1     154.875 164.557 185.911  0.00  0.00    +0.101 C 
ATOM     12  C   UNL     1     154.914 165.964 186.605  0.00  0.00    +0.136 C 
ATOM     13  C   UNL     1     156.004 166.903 186.123  0.00  0.00    -0.044 C 
ATOM     14  C   UNL     1     155.836 168.066 185.463  0.00  0.00    -0.046 C 
ATOM     15  C   UNL     1     156.933 168.913 184.872  0.00  0.00    +0.139 C 
ATOM     16  C   UNL     1     157.131 168.514 183.383  0.00  0.00    +0.171 C 
ATOM     17  O   UNL     1     158.218 168.057 183.005  0.00  0.00    -0.294 OA
ATOM     18  C   UNL     1     156.253 163.900 185.912  0.00  0.00    +0.224 C 
ATOM     19  O   UNL     1     157.243 164.247 185.288  0.00  0.00    -0.275 OA
ATOM     20  N   UNL     1     156.256 162.788 186.701  0.00  0.00    -0.311 N 
ATOM     21  C   UNL     1     155.023 162.514 187.367  0.00  0.00    +0.032 C 
ATOM     22  H   UNL     1     155.122 169.164 182.914  0.00  0.00    +0.038 HD
ATOM     23  H   UNL     1     154.929 167.477 180.936  0.00  0.00    +0.031 HD
ATOM     24  H   UNL     1     156.416 166.749 181.518  0.00  0.00    +0.031 HD
ATOM     25  H   UNL     1     153.695 166.887 182.986  0.00  0.00    +0.057 HD
ATOM     26  H   UNL     1     156.165 165.086 183.252  0.00  0.00    +0.057 HD
ATOM     27  H   UNL     1     153.333 165.106 184.472  0.00  0.00    +0.038 HD
ATOM     28  H   UNL     1     155.031 162.732 183.569  0.00  0.00    +0.065 HD
ATOM     29  H   UNL     1     152.628 160.273 185.102  0.00  0.00    +0.054 HD
ATOM     30  H   UNL     1     153.537 160.584 183.527  0.00  0.00    +0.054 HD
ATOM     31  H   UNL     1     152.152 163.735 185.763  0.00  0.00    +0.035 HD
ATOM     32  H   UNL     1     153.589 164.103 187.660  0.00  0.00    +0.034 HD
ATOM     33  H   UNL     1     155.089 165.847 187.679  0.00  0.00    +0.079 HD
ATOM     34  H   UNL     1     157.020 166.566 186.322  0.00  0.00    +0.061 HD
ATOM     35  H   UNL     1     154.825 168.408 185.258  0.00  0.00    +0.060 HD
ATOM     36  H   UNL     1     157.092 162.220 186.770  0.00  0.00    +0.149 HD
ATOM     37  H   UNL     1     154.746 161.502 187.050  0.00  0.00    +0.050 HD
ENDROOT
BRANCH   1  38
ATOM     38  C   UNL     1     156.423 169.626 181.285  0.00  0.00    -0.055 C 
ATOM     39  H   UNL     1     157.506 169.789 181.328  0.00  0.00    +0.024 HD
ATOM     40  H   UNL     1     155.932 170.601 181.371  0.00  0.00    +0.024 HD
ATOM     41  H   UNL     1     156.191 169.214 180.297  0.00  0.00    +0.024 HD
ENDBRANCH   1  38
BRANCH  15  42
ATOM     42  C   UNL     1     156.643 170.406 185.005  0.00  0.00    -0.025 C 
ATOM     43  H   UNL     1     156.371 170.834 184.034  0.00  0.00    +0.026 HD
ATOM     44  H   UNL     1     157.531 170.949 185.350  0.00  0.00    +0.026 HD
ATOM     45  H   UNL     1     155.824 170.614 185.701  0.00  0.00    +0.026 HD
ENDBRANCH  15  42
BRANCH   9  46
ATOM     46  C   UNL     1     151.987 162.038 186.993  0.00  0.00    -0.058 C 
ATOM     47  H   UNL     1     151.622 161.133 186.501  0.00  0.00    +0.024 HD
ATOM     48  H   UNL     1     151.118 162.591 187.367  0.00  0.00    +0.024 HD
ATOM     49  H   UNL     1     152.575 161.730 187.865  0.00  0.00    +0.024 HD
ENDBRANCH   9  46
BRANCH  21  50
ATOM     50  C   UNL     1     155.161 162.464 188.904  0.00  0.00    -0.009 C 
ATOM     51  H   UNL     1     154.458 161.718 189.297  0.00  0.00    +0.033 HD
ATOM     52  H   UNL     1     156.159 162.080 189.155  0.00  0.00    +0.033 HD
BRANCH  50  53
ATOM     53  C   UNL     1     154.982 163.765 189.650  0.00  0.00    -0.046 A 
ATOM     54  C   UNL     1     156.036 164.683 189.764  0.00  0.00    -0.059 A 
ATOM     55  C   UNL     1     155.859 165.891 190.441  0.00  0.00    -0.062 A 
ATOM     56  C   UNL     1     154.631 166.191 191.024  0.00  0.00    -0.062 A 
ATOM     57  C   UNL     1     153.582 165.280 190.935  0.00  0.00    -0.062 A 
ATOM     58  C   UNL     1     153.756 164.073 190.256  0.00  0.00    -0.059 A 
ATOM     59  H   UNL     1     157.005 164.470 189.322  0.00  0.00    +0.062 HD
ATOM     60  H   UNL     1     156.680 166.600 190.511  0.00  0.00    +0.062 HD
ATOM     61  H   UNL     1     154.491 167.133 191.546  0.00  0.00    +0.062 HD
ATOM     62  H   UNL     1     152.618 165.512 191.381  0.00  0.00    +0.062 HD
ATOM     63  H   UNL     1     152.914 163.387 190.186  0.00  0.00    +0.062 HD
ENDBRANCH  50  53
ENDBRANCH  21  50
BRANCH  15  64
ATOM     64  O   UNL     1     158.152 168.672 185.582  0.00  0.00    -0.377 OA
ATOM     65  H   UNL     1     158.682 168.084 185.005  0.00  0.00    +0.211 HD
ENDBRANCH  15  64
BRANCH   6  66
ATOM     66  O   UNL     1     153.275 163.298 182.667  0.00  0.00    -0.387 OA
ATOM     67  H   UNL     1     153.302 164.231 182.391  0.00  0.00    +0.210 HD
ENDBRANCH   6  66
BRANCH  12  68
ATOM     68  O   UNL     1     153.639 166.624 186.374  0.00  0.00    -0.456 OA
BRANCH  68  69
ATOM     69  C   UNL     1     152.851 166.941 187.430  0.00  0.00    +0.305 C 
ATOM     70  O   UNL     1     153.145 167.676 188.359  0.00  0.00    -0.251 OA
BRANCH  69  71
ATOM     71  C   UNL     1     151.527 166.253 187.295  0.00  0.00    +0.033 C 
ATOM     72  H   UNL     1     151.331 165.637 188.175  0.00  0.00    +0.034 HD
ATOM     73  H   UNL     1     151.521 165.642 186.390  0.00  0.00    +0.034 HD
ATOM     74  H   UNL     1     150.735 167.005 187.228  0.00  0.00    +0.034 HD
ENDBRANCH  69  71
ENDBRANCH  68  69
ENDBRANCH  12  68
TORSDOF 10
ENDMDL
