MODEL 1
REMARK VINA RESULT:      -6.6      0.000      0.000
REMARK  Name = Cytochalasin B_conf1
REMARK  6 active torsions:
REMARK  status: ('A' for Active; 'I' for Inactive)
REMARK    1  A    between atoms: C_1  and  C_2
REMARK    2  A    between atoms: C_6  and  O_35
REMARK    3  A    between atoms: C_17  and  O_34
REMARK    4  A    between atoms: C_20  and  C_33
REMARK    5  A    between atoms: C_22  and  C_26
REMARK    6  A    between atoms: C_26  and  C_27
REMARK                            x       y       z     vdW  Elec       q    Type
REMARK                         _______ _______ _______ _____ _____    ______ ____
ROOT
ATOM      1  C   UNL     1     150.518 167.967 190.805  0.00  0.00    -0.040 C 
ATOM      2  C   UNL     1     149.943 168.518 192.130  0.00  0.00    -0.050 C 
ATOM      3  C   UNL     1     150.495 169.874 192.602  0.00  0.00    -0.050 C 
ATOM      4  C   UNL     1     150.369 171.054 191.630  0.00  0.00    -0.023 C 
ATOM      5  C   UNL     1     149.007 171.771 191.600  0.00  0.00    +0.074 C 
ATOM      6  C   UNL     1     147.865 170.880 191.225  0.00  0.00    -0.049 C 
ATOM      7  C   UNL     1     147.356 170.731 189.992  0.00  0.00    +0.021 C 
ATOM      8  C   UNL     1     146.321 169.738 189.642  0.00  0.00    +0.333 C 
ATOM      9  O   UNL     1     145.971 169.537 188.489  0.00  0.00    -0.246 OA
ATOM     10  O   UNL     1     145.869 169.088 190.738  0.00  0.00    -0.444 OA
ATOM     11  C   UNL     1     145.093 167.878 190.561  0.00  0.00    +0.202 C 
ATOM     12  C   UNL     1     145.894 166.747 189.862  0.00  0.00    +0.056 C 
ATOM     13  C   UNL     1     147.286 166.524 190.451  0.00  0.00    -0.078 C 
ATOM     14  C   UNL     1     148.427 166.887 189.841  0.00  0.00    -0.087 C 
ATOM     15  C   UNL     1     149.806 166.655 190.401  0.00  0.00    -0.032 C 
ATOM     16  C   UNL     1     145.076 165.425 189.846  0.00  0.00    +0.087 C 
ATOM     17  C   UNL     1     143.577 165.647 189.742  0.00  0.00    -0.045 C 
ATOM     18  C   UNL     1     142.707 164.760 190.255  0.00  0.00    -0.097 C 
ATOM     19  C   UNL     1     143.197 166.955 189.072  0.00  0.00    -0.012 C 
ATOM     20  C   UNL     1     143.694 168.164 189.918  0.00  0.00    +0.033 C 
ATOM     21  C   UNL     1     142.805 168.549 191.122  0.00  0.00    +0.035 C 
ATOM     22  N   UNL     1     143.414 167.876 192.234  0.00  0.00    -0.308 N 
ATOM     23  C   UNL     1     144.710 167.485 191.998  0.00  0.00    +0.258 C 
ATOM     24  O   UNL     1     145.408 166.941 192.839  0.00  0.00    -0.271 OA
ATOM     25  H   UNL     1     150.360 168.699 190.005  0.00  0.00    +0.030 HD
ATOM     26  H   UNL     1     150.144 167.788 192.928  0.00  0.00    +0.027 HD
ATOM     27  H   UNL     1     148.854 168.572 192.066  0.00  0.00    +0.027 HD
ATOM     28  H   UNL     1     150.011 170.138 193.551  0.00  0.00    +0.027 HD
ATOM     29  H   UNL     1     151.557 169.746 192.842  0.00  0.00    +0.027 HD
ATOM     30  H   UNL     1     150.668 170.767 190.615  0.00  0.00    +0.029 HD
ATOM     31  H   UNL     1     151.116 171.804 191.926  0.00  0.00    +0.029 HD
ATOM     32  H   UNL     1     148.795 172.217 192.577  0.00  0.00    +0.064 HD
ATOM     33  H   UNL     1     147.463 170.291 192.048  0.00  0.00    +0.060 HD
ATOM     34  H   UNL     1     147.747 171.293 189.150  0.00  0.00    +0.069 HD
ATOM     35  H   UNL     1     146.053 167.045 188.816  0.00  0.00    +0.042 HD
ATOM     36  H   UNL     1     147.337 166.046 191.428  0.00  0.00    +0.057 HD
ATOM     37  H   UNL     1     148.384 167.365 188.863  0.00  0.00    +0.057 HD
ATOM     38  H   UNL     1     150.383 166.144 189.621  0.00  0.00    +0.031 HD
ATOM     39  H   UNL     1     149.770 165.968 191.256  0.00  0.00    +0.031 HD
ATOM     40  H   UNL     1     145.305 164.825 190.736  0.00  0.00    +0.065 HD
ATOM     41  H   UNL     1     141.632 164.902 190.217  0.00  0.00    +0.054 HD
ATOM     42  H   UNL     1     143.051 163.853 190.746  0.00  0.00    +0.054 HD
ATOM     43  H   UNL     1     143.769 166.981 188.131  0.00  0.00    +0.035 HD
ATOM     44  H   UNL     1     143.728 169.019 189.233  0.00  0.00    +0.037 HD
ATOM     45  H   UNL     1     141.784 168.168 191.035  0.00  0.00    +0.051 HD
ATOM     46  H   UNL     1     142.978 167.735 193.138  0.00  0.00    +0.149 HD
ENDROOT
BRANCH   1  47
ATOM     47  C   UNL     1     152.025 167.714 190.921  0.00  0.00    -0.062 C 
ATOM     48  H   UNL     1     152.600 168.515 190.446  0.00  0.00    +0.023 HD
ATOM     49  H   UNL     1     152.306 166.766 190.453  0.00  0.00    +0.023 HD
ATOM     50  H   UNL     1     152.329 167.656 191.972  0.00  0.00    +0.023 HD
ENDBRANCH   1  47
BRANCH  19  51
ATOM     51  C   UNL     1     141.738 167.092 188.623  0.00  0.00    -0.058 C 
ATOM     52  H   UNL     1     141.684 167.234 187.537  0.00  0.00    +0.024 HD
ATOM     53  H   UNL     1     141.128 166.218 188.866  0.00  0.00    +0.024 HD
ATOM     54  H   UNL     1     141.273 167.968 189.090  0.00  0.00    +0.024 HD
ENDBRANCH  19  51
BRANCH  21  55
ATOM     55  C   UNL     1     142.760 170.077 191.339  0.00  0.00    -0.009 C 
ATOM     56  H   UNL     1     143.237 170.358 192.286  0.00  0.00    +0.033 HD
ATOM     57  H   UNL     1     143.335 170.581 190.550  0.00  0.00    +0.033 HD
BRANCH  55  58
ATOM     58  C   UNL     1     141.350 170.621 191.318  0.00  0.00    -0.046 A 
ATOM     59  C   UNL     1     140.336 169.941 190.631  0.00  0.00    -0.059 A 
ATOM     60  C   UNL     1     139.030 170.434 190.632  0.00  0.00    -0.062 A 
ATOM     61  C   UNL     1     138.725 171.605 191.322  0.00  0.00    -0.062 A 
ATOM     62  C   UNL     1     139.726 172.287 192.011  0.00  0.00    -0.062 A 
ATOM     63  C   UNL     1     141.033 171.798 192.011  0.00  0.00    -0.059 A 
ATOM     64  H   UNL     1     140.555 169.025 190.086  0.00  0.00    +0.062 HD
ATOM     65  H   UNL     1     138.248 169.903 190.093  0.00  0.00    +0.062 HD
ATOM     66  H   UNL     1     137.708 171.988 191.321  0.00  0.00    +0.062 HD
ATOM     67  H   UNL     1     139.490 173.202 192.549  0.00  0.00    +0.062 HD
ATOM     68  H   UNL     1     141.803 172.339 192.555  0.00  0.00    +0.062 HD
ENDBRANCH  55  58
ENDBRANCH  21  55
BRANCH  16  69
ATOM     69  O   UNL     1     145.467 164.659 188.705  0.00  0.00    -0.387 OA
ATOM     70  H   UNL     1     145.242 163.732 188.894  0.00  0.00    +0.210 HD
ENDBRANCH  16  69
BRANCH   5  71
ATOM     71  O   UNL     1     149.082 172.840 190.658  0.00  0.00    -0.388 OA
ATOM     72  H   UNL     1     149.010 172.447 189.772  0.00  0.00    +0.210 HD
ENDBRANCH   5  71
TORSDOF 6
ENDMDL
MODEL 2
REMARK VINA RESULT:      -6.5      6.384     11.787
REMARK  Name = Cytochalasin B_conf1
REMARK  6 active torsions:
REMARK  status: ('A' for Active; 'I' for Inactive)
REMARK    1  A    between atoms: C_1  and  C_2
REMARK    2  A    between atoms: C_6  and  O_35
REMARK    3  A    between atoms: C_17  and  O_34
REMARK    4  A    between atoms: C_20  and  C_33
REMARK    5  A    between atoms: C_22  and  C_26
REMARK    6  A    between atoms: C_26  and  C_27
REMARK                            x       y       z     vdW  Elec       q    Type
REMARK                         _______ _______ _______ _____ _____    ______ ____
ROOT
ATOM      1  C   UNL     1     150.739 167.523 191.432  0.00  0.00    -0.040 C 
ATOM      2  C   UNL     1     150.128 166.229 190.846  0.00  0.00    -0.050 C 
ATOM      3  C   UNL     1     148.787 166.381 190.108  0.00  0.00    -0.050 C 
ATOM      4  C   UNL     1     148.745 167.370 188.935  0.00  0.00    -0.023 C 
ATOM      5  C   UNL     1     149.275 166.850 187.586  0.00  0.00    +0.074 C 
ATOM      6  C   UNL     1     150.705 166.411 187.629  0.00  0.00    -0.049 C 
ATOM      7  C   UNL     1     151.768 167.160 187.296  0.00  0.00    +0.021 C 
ATOM      8  C   UNL     1     153.168 166.734 187.484  0.00  0.00    +0.333 C 
ATOM      9  O   UNL     1     154.112 167.487 187.294  0.00  0.00    -0.246 OA
ATOM     10  O   UNL     1     153.241 165.457 187.919  0.00  0.00    -0.444 OA
ATOM     11  C   UNL     1     154.498 164.973 188.454  0.00  0.00    +0.202 C 
ATOM     12  C   UNL     1     154.943 165.738 189.728  0.00  0.00    +0.056 C 
ATOM     13  C   UNL     1     153.834 165.902 190.767  0.00  0.00    -0.078 C 
ATOM     14  C   UNL     1     153.206 167.062 191.019  0.00  0.00    -0.087 C 
ATOM     15  C   UNL     1     152.127 167.241 192.054  0.00  0.00    -0.032 C 
ATOM     16  C   UNL     1     156.203 165.075 190.355  0.00  0.00    +0.087 C 
ATOM     17  C   UNL     1     157.127 164.450 189.324  0.00  0.00    -0.045 C 
ATOM     18  C   UNL     1     157.910 163.404 189.639  0.00  0.00    -0.097 C 
ATOM     19  C   UNL     1     157.026 165.083 187.948  0.00  0.00    -0.012 C 
ATOM     20  C   UNL     1     155.605 164.863 187.351  0.00  0.00    +0.033 C 
ATOM     21  C   UNL     1     155.354 163.480 186.710  0.00  0.00    +0.035 C 
ATOM     22  N   UNL     1     154.731 162.719 187.756  0.00  0.00    -0.308 N 
ATOM     23  C   UNL     1     154.208 163.494 188.764  0.00  0.00    +0.258 C 
ATOM     24  O   UNL     1     153.599 163.031 189.715  0.00  0.00    -0.271 OA
ATOM     25  H   UNL     1     150.869 168.261 190.633  0.00  0.00    +0.030 HD
ATOM     26  H   UNL     1     149.970 165.515 191.667  0.00  0.00    +0.027 HD
ATOM     27  H   UNL     1     150.852 165.745 190.188  0.00  0.00    +0.027 HD
ATOM     28  H   UNL     1     148.467 165.393 189.755  0.00  0.00    +0.027 HD
ATOM     29  H   UNL     1     148.028 166.690 190.837  0.00  0.00    +0.027 HD
ATOM     30  H   UNL     1     149.235 168.315 189.195  0.00  0.00    +0.029 HD
ATOM     31  H   UNL     1     147.694 167.647 188.778  0.00  0.00    +0.029 HD
ATOM     32  H   UNL     1     148.663 166.011 187.239  0.00  0.00    +0.064 HD
ATOM     33  H   UNL     1     150.855 165.399 188.003  0.00  0.00    +0.060 HD
ATOM     34  H   UNL     1     151.649 168.177 186.935  0.00  0.00    +0.069 HD
ATOM     35  H   UNL     1     155.227 166.757 189.426  0.00  0.00    +0.042 HD
ATOM     36  H   UNL     1     153.546 165.011 191.324  0.00  0.00    +0.057 HD
ATOM     37  H   UNL     1     153.490 167.957 190.467  0.00  0.00    +0.057 HD
ATOM     38  H   UNL     1     152.429 168.087 192.685  0.00  0.00    +0.031 HD
ATOM     39  H   UNL     1     152.072 166.368 192.717  0.00  0.00    +0.031 HD
ATOM     40  H   UNL     1     155.908 164.324 191.098  0.00  0.00    +0.065 HD
ATOM     41  H   UNL     1     158.564 162.922 188.920  0.00  0.00    +0.054 HD
ATOM     42  H   UNL     1     157.913 162.984 190.642  0.00  0.00    +0.054 HD
ATOM     43  H   UNL     1     157.128 166.167 188.113  0.00  0.00    +0.035 HD
ATOM     44  H   UNL     1     155.481 165.626 186.575  0.00  0.00    +0.037 HD
ATOM     45  H   UNL     1     156.278 162.962 186.443  0.00  0.00    +0.051 HD
ATOM     46  H   UNL     1     154.620 161.712 187.755  0.00  0.00    +0.149 HD
ENDROOT
BRANCH   1  47
ATOM     47  C   UNL     1     149.819 168.135 192.494  0.00  0.00    -0.062 C 
ATOM     48  H   UNL     1     150.142 167.862 193.504  0.00  0.00    +0.023 HD
ATOM     49  H   UNL     1     148.785 167.804 192.363  0.00  0.00    +0.023 HD
ATOM     50  H   UNL     1     149.819 169.228 192.423  0.00  0.00    +0.023 HD
ENDBRANCH   1  47
BRANCH  19  51
ATOM     51  C   UNL     1     158.152 164.750 186.961  0.00  0.00    -0.058 C 
ATOM     52  H   UNL     1     158.665 163.830 187.264  0.00  0.00    +0.024 HD
ATOM     53  H   UNL     1     157.799 164.603 185.937  0.00  0.00    +0.024 HD
ATOM     54  H   UNL     1     158.899 165.552 186.948  0.00  0.00    +0.024 HD
ENDBRANCH  19  51
BRANCH  21  55
ATOM     55  C   UNL     1     154.448 163.580 185.464  0.00  0.00    -0.009 C 
ATOM     56  H   UNL     1     154.254 162.589 185.034  0.00  0.00    +0.033 HD
ATOM     57  H   UNL     1     153.467 163.983 185.749  0.00  0.00    +0.033 HD
BRANCH  55  58
ATOM     58  C   UNL     1     155.036 164.473 184.395  0.00  0.00    -0.046 A 
ATOM     59  C   UNL     1     154.383 165.655 184.018  0.00  0.00    -0.059 A 
ATOM     60  C   UNL     1     154.939 166.489 183.047  0.00  0.00    -0.062 A 
ATOM     61  C   UNL     1     156.152 166.152 182.448  0.00  0.00    -0.062 A 
ATOM     62  C   UNL     1     156.809 164.981 182.817  0.00  0.00    -0.062 A 
ATOM     63  C   UNL     1     156.256 164.145 183.787  0.00  0.00    -0.059 A 
ATOM     64  H   UNL     1     153.436 165.932 184.475  0.00  0.00    +0.062 HD
ATOM     65  H   UNL     1     154.426 167.402 182.756  0.00  0.00    +0.062 HD
ATOM     66  H   UNL     1     156.583 166.802 181.691  0.00  0.00    +0.062 HD
ATOM     67  H   UNL     1     157.755 164.717 182.350  0.00  0.00    +0.062 HD
ATOM     68  H   UNL     1     156.782 163.235 184.068  0.00  0.00    +0.062 HD
ENDBRANCH  55  58
ENDBRANCH  21  55
BRANCH  16  69
ATOM     69  O   UNL     1     156.954 166.080 191.040  0.00  0.00    -0.387 OA
ATOM     70  H   UNL     1     156.468 166.915 190.939  0.00  0.00    +0.210 HD
ENDBRANCH  16  69
BRANCH   5  71
ATOM     71  O   UNL     1     149.145 167.892 186.621  0.00  0.00    -0.388 OA
ATOM     72  H   UNL     1     150.043 168.138 186.340  0.00  0.00    +0.210 HD
ENDBRANCH   5  71
TORSDOF 6
ENDMDL
MODEL 3
REMARK VINA RESULT:      -6.5      3.535      6.417
REMARK  Name = Cytochalasin B_conf1
REMARK  6 active torsions:
REMARK  status: ('A' for Active; 'I' for Inactive)
REMARK    1  A    between atoms: C_1  and  C_2
REMARK    2  A    between atoms: C_6  and  O_35
REMARK    3  A    between atoms: C_17  and  O_34
REMARK    4  A    between atoms: C_20  and  C_33
REMARK    5  A    between atoms: C_22  and  C_26
REMARK    6  A    between atoms: C_26  and  C_27
REMARK                            x       y       z     vdW  Elec       q    Type
REMARK                         _______ _______ _______ _____ _____    ______ ____
ROOT
ATOM      1  C   UNL     1     150.630 165.888 193.521  0.00  0.00    -0.040 C 
ATOM      2  C   UNL     1     151.239 167.191 192.954  0.00  0.00    -0.050 C 
ATOM      3  C   UNL     1     152.741 167.156 192.623  0.00  0.00    -0.050 C 
ATOM      4  C   UNL     1     153.213 166.073 191.643  0.00  0.00    -0.023 C 
ATOM      5  C   UNL     1     153.028 166.381 190.146  0.00  0.00    +0.074 C 
ATOM      6  C   UNL     1     151.605 166.620 189.751  0.00  0.00    -0.049 C 
ATOM      7  C   UNL     1     150.764 165.702 189.250  0.00  0.00    +0.021 C 
ATOM      8  C   UNL     1     149.329 165.946 189.003  0.00  0.00    +0.333 C 
ATOM      9  O   UNL     1     148.562 165.055 188.670  0.00  0.00    -0.246 OA
ATOM     10  O   UNL     1     149.002 167.237 189.232  0.00  0.00    -0.444 OA
ATOM     11  C   UNL     1     147.602 167.592 189.347  0.00  0.00    +0.202 C 
ATOM     12  C   UNL     1     146.903 166.899 190.547  0.00  0.00    +0.056 C 
ATOM     13  C   UNL     1     147.689 166.992 191.855  0.00  0.00    -0.078 C 
ATOM     14  C   UNL     1     148.342 165.960 192.414  0.00  0.00    -0.087 C 
ATOM     15  C   UNL     1     149.103 166.034 193.711  0.00  0.00    -0.032 C 
ATOM     16  C   UNL     1     145.455 167.439 190.725  0.00  0.00    +0.087 C 
ATOM     17  C   UNL     1     144.794 167.827 189.414  0.00  0.00    -0.045 C 
ATOM     18  C   UNL     1     143.848 168.780 189.370  0.00  0.00    -0.097 C 
ATOM     19  C   UNL     1     145.342 167.084 188.209  0.00  0.00    -0.012 C 
ATOM     20  C   UNL     1     146.841 167.439 187.986  0.00  0.00    +0.033 C 
ATOM     21  C   UNL     1     147.112 168.775 187.258  0.00  0.00    +0.035 C 
ATOM     22  N   UNL     1     147.334 169.713 188.323  0.00  0.00    -0.308 N 
ATOM     23  C   UNL     1     147.634 169.120 189.526  0.00  0.00    +0.258 C 
ATOM     24  O   UNL     1     147.900 169.752 190.535  0.00  0.00    -0.271 OA
ATOM     25  H   UNL     1     150.808 165.065 192.820  0.00  0.00    +0.030 HD
ATOM     26  H   UNL     1     151.085 167.996 193.686  0.00  0.00    +0.027 HD
ATOM     27  H   UNL     1     150.680 167.504 192.069  0.00  0.00    +0.027 HD
ATOM     28  H   UNL     1     153.039 168.140 192.241  0.00  0.00    +0.027 HD
ATOM     29  H   UNL     1     153.294 167.027 193.561  0.00  0.00    +0.027 HD
ATOM     30  H   UNL     1     152.775 165.099 191.886  0.00  0.00    +0.029 HD
ATOM     31  H   UNL     1     154.290 165.930 191.808  0.00  0.00    +0.029 HD
ATOM     32  H   UNL     1     153.620 167.259 189.867  0.00  0.00    +0.064 HD
ATOM     33  H   UNL     1     151.249 167.632 189.936  0.00  0.00    +0.060 HD
ATOM     34  H   UNL     1     151.087 164.681 189.070  0.00  0.00    +0.069 HD
ATOM     35  H   UNL     1     146.825 165.827 190.317  0.00  0.00    +0.042 HD
ATOM     36  H   UNL     1     147.713 167.964 192.346  0.00  0.00    +0.057 HD
ATOM     37  H   UNL     1     148.321 164.985 191.928  0.00  0.00    +0.057 HD
ATOM     38  H   UNL     1     148.728 165.220 194.345  0.00  0.00    +0.031 HD
ATOM     39  H   UNL     1     148.876 166.966 194.245  0.00  0.00    +0.031 HD
ATOM     40  H   UNL     1     145.449 168.292 191.415  0.00  0.00    +0.065 HD
ATOM     41  H   UNL     1     143.373 169.094 188.447  0.00  0.00    +0.054 HD
ATOM     42  H   UNL     1     143.520 169.291 190.273  0.00  0.00    +0.054 HD
ATOM     43  H   UNL     1     145.314 166.017 188.481  0.00  0.00    +0.035 HD
ATOM     44  H   UNL     1     147.257 166.629 187.377  0.00  0.00    +0.037 HD
ATOM     45  H   UNL     1     146.250 169.132 186.691  0.00  0.00    +0.051 HD
ATOM     46  H   UNL     1     147.332 170.721 188.219  0.00  0.00    +0.149 HD
ENDROOT
BRANCH   1  47
ATOM     47  C   UNL     1     151.277 165.515 194.859  0.00  0.00    -0.062 C 
ATOM     48  H   UNL     1     151.804 164.557 194.793  0.00  0.00    +0.023 HD
ATOM     49  H   UNL     1     150.530 165.441 195.655  0.00  0.00    +0.023 HD
ATOM     50  H   UNL     1     152.000 166.278 195.167  0.00  0.00    +0.023 HD
ENDBRANCH   1  47
BRANCH  19  51
ATOM     51  C   UNL     1     144.507 167.160 186.925  0.00  0.00    -0.058 C 
ATOM     52  H   UNL     1     144.964 167.857 186.213  0.00  0.00    +0.024 HD
ATOM     53  H   UNL     1     144.408 166.197 186.417  0.00  0.00    +0.024 HD
ATOM     54  H   UNL     1     143.500 167.530 187.144  0.00  0.00    +0.024 HD
ENDBRANCH  19  51
BRANCH  21  55
ATOM     55  C   UNL     1     148.335 168.682 186.321  0.00  0.00    -0.009 C 
ATOM     56  H   UNL     1     148.494 169.623 185.781  0.00  0.00    +0.033 HD
ATOM     57  H   UNL     1     149.245 168.515 186.912  0.00  0.00    +0.033 HD
BRANCH  55  58
ATOM     58  C   UNL     1     148.208 167.556 185.319  0.00  0.00    -0.046 A 
ATOM     59  C   UNL     1     147.216 167.593 184.330  0.00  0.00    -0.059 A 
ATOM     60  C   UNL     1     147.115 166.564 183.393  0.00  0.00    -0.062 A 
ATOM     61  C   UNL     1     148.005 165.492 183.434  0.00  0.00    -0.062 A 
ATOM     62  C   UNL     1     148.996 165.447 184.411  0.00  0.00    -0.062 A 
ATOM     63  C   UNL     1     149.099 166.474 185.350  0.00  0.00    -0.059 A 
ATOM     64  H   UNL     1     146.513 168.422 184.284  0.00  0.00    +0.062 HD
ATOM     65  H   UNL     1     146.340 166.598 182.630  0.00  0.00    +0.062 HD
ATOM     66  H   UNL     1     147.924 164.691 182.704  0.00  0.00    +0.062 HD
ATOM     67  H   UNL     1     149.690 164.611 184.445  0.00  0.00    +0.062 HD
ATOM     68  H   UNL     1     149.880 166.427 186.106  0.00  0.00    +0.062 HD
ENDBRANCH  55  58
ENDBRANCH  21  55
BRANCH  16  69
ATOM     69  O   UNL     1     144.654 166.411 191.313  0.00  0.00    -0.387 OA
ATOM     70  H   UNL     1     144.119 166.026 190.598  0.00  0.00    +0.210 HD
ENDBRANCH  16  69
BRANCH   5  71
ATOM     71  O   UNL     1     153.533 165.279 189.395  0.00  0.00    -0.388 OA
ATOM     72  H   UNL     1     154.503 165.304 189.464  0.00  0.00    +0.210 HD
ENDBRANCH   5  71
TORSDOF 6
ENDMDL
MODEL 4
REMARK VINA RESULT:      -6.5      3.161      7.146
REMARK  Name = Cytochalasin B_conf1
REMARK  6 active torsions:
REMARK  status: ('A' for Active; 'I' for Inactive)
REMARK    1  A    between atoms: C_1  and  C_2
REMARK    2  A    between atoms: C_6  and  O_35
REMARK    3  A    between atoms: C_17  and  O_34
REMARK    4  A    between atoms: C_20  and  C_33
REMARK    5  A    between atoms: C_22  and  C_26
REMARK    6  A    between atoms: C_26  and  C_27
REMARK                            x       y       z     vdW  Elec       q    Type
REMARK                         _______ _______ _______ _____ _____    ______ ____
ROOT
ATOM      1  C   UNL     1     143.827 164.233 189.381  0.00  0.00    -0.040 C 
ATOM      2  C   UNL     1     143.509 165.746 189.404  0.00  0.00    -0.050 C 
ATOM      3  C   UNL     1     142.307 166.179 190.261  0.00  0.00    -0.050 C 
ATOM      4  C   UNL     1     142.332 165.787 191.744  0.00  0.00    -0.023 C 
ATOM      5  C   UNL     1     143.152 166.697 192.676  0.00  0.00    +0.074 C 
ATOM      6  C   UNL     1     144.600 166.788 192.309  0.00  0.00    -0.049 C 
ATOM      7  C   UNL     1     145.591 166.047 192.831  0.00  0.00    +0.021 C 
ATOM      8  C   UNL     1     146.983 166.072 192.342  0.00  0.00    +0.333 C 
ATOM      9  O   UNL     1     147.832 165.293 192.748  0.00  0.00    -0.246 OA
ATOM     10  O   UNL     1     147.156 167.017 191.391  0.00  0.00    -0.444 OA
ATOM     11  C   UNL     1     148.356 166.980 190.581  0.00  0.00    +0.202 C 
ATOM     12  C   UNL     1     148.466 165.688 189.728  0.00  0.00    +0.056 C 
ATOM     13  C   UNL     1     147.184 165.336 188.975  0.00  0.00    -0.078 C 
ATOM     14  C   UNL     1     146.367 164.324 189.313  0.00  0.00    -0.087 C 
ATOM     15  C   UNL     1     145.112 163.954 188.568  0.00  0.00    -0.032 C 
ATOM     16  C   UNL     1     149.678 165.772 188.758  0.00  0.00    +0.087 C 
ATOM     17  C   UNL     1     150.844 166.568 189.321  0.00  0.00    -0.045 C 
ATOM     18  C   UNL     1     151.697 167.216 188.510  0.00  0.00    -0.097 C 
ATOM     19  C   UNL     1     150.894 166.588 190.838  0.00  0.00    -0.012 C 
ATOM     20  C   UNL     1     149.641 167.309 191.414  0.00  0.00    +0.033 C 
ATOM     21  C   UNL     1     149.696 168.854 191.413  0.00  0.00    +0.035 C 
ATOM     22  N   UNL     1     149.014 169.227 190.206  0.00  0.00    -0.308 N 
ATOM     23  C   UNL     1     148.224 168.227 189.689  0.00  0.00    +0.258 C 
ATOM     24  O   UNL     1     147.531 168.370 188.695  0.00  0.00    -0.271 OA
ATOM     25  H   UNL     1     143.989 163.877 190.405  0.00  0.00    +0.030 HD
ATOM     26  H   UNL     1     143.312 166.077 188.374  0.00  0.00    +0.027 HD
ATOM     27  H   UNL     1     144.395 166.304 189.714  0.00  0.00    +0.027 HD
ATOM     28  H   UNL     1     142.192 167.266 190.179  0.00  0.00    +0.027 HD
ATOM     29  H   UNL     1     141.399 165.755 189.814  0.00  0.00    +0.027 HD
ATOM     30  H   UNL     1     142.634 164.742 191.874  0.00  0.00    +0.029 HD
ATOM     31  H   UNL     1     141.295 165.812 192.107  0.00  0.00    +0.029 HD
ATOM     32  H   UNL     1     142.730 167.708 192.682  0.00  0.00    +0.064 HD
ATOM     33  H   UNL     1     144.822 167.505 191.521  0.00  0.00    +0.060 HD
ATOM     34  H   UNL     1     145.396 165.313 193.606  0.00  0.00    +0.069 HD
ATOM     35  H   UNL     1     148.654 164.848 190.413  0.00  0.00    +0.042 HD
ATOM     36  H   UNL     1     146.930 165.958 188.118  0.00  0.00    +0.057 HD
ATOM     37  H   UNL     1     146.616 163.697 190.169  0.00  0.00    +0.057 HD
ATOM     38  H   UNL     1     145.182 162.883 188.341  0.00  0.00    +0.031 HD
ATOM     39  H   UNL     1     145.066 164.470 187.601  0.00  0.00    +0.031 HD
ATOM     40  H   UNL     1     149.367 166.195 187.795  0.00  0.00    +0.065 HD
ATOM     41  H   UNL     1     152.525 167.810 188.882  0.00  0.00    +0.054 HD
ATOM     42  H   UNL     1     151.586 167.178 187.429  0.00  0.00    +0.054 HD
ATOM     43  H   UNL     1     150.816 165.536 191.151  0.00  0.00    +0.035 HD
ATOM     44  H   UNL     1     149.548 166.973 192.453  0.00  0.00    +0.037 HD
ATOM     45  H   UNL     1     150.715 169.242 191.339  0.00  0.00    +0.051 HD
ATOM     46  H   UNL     1     149.045 170.145 189.781  0.00  0.00    +0.149 HD
ENDROOT
BRANCH   1  47
ATOM     47  C   UNL     1     142.663 163.434 188.784  0.00  0.00    -0.062 C 
ATOM     48  H   UNL     1     142.225 163.953 187.925  0.00  0.00    +0.023 HD
ATOM     49  H   UNL     1     141.874 163.270 189.523  0.00  0.00    +0.023 HD
ATOM     50  H   UNL     1     143.000 162.448 188.449  0.00  0.00    +0.023 HD
ENDBRANCH   1  47
BRANCH  19  51
ATOM     51  C   UNL     1     152.207 167.066 191.469  0.00  0.00    -0.058 C 
ATOM     52  H   UNL     1     153.025 166.380 191.214  0.00  0.00    +0.024 HD
ATOM     53  H   UNL     1     152.507 168.064 191.140  0.00  0.00    +0.024 HD
ATOM     54  H   UNL     1     152.124 167.083 192.562  0.00  0.00    +0.024 HD
ENDBRANCH  19  51
BRANCH  21  55
ATOM     55  C   UNL     1     149.013 169.455 192.660  0.00  0.00    -0.009 C 
ATOM     56  H   UNL     1     148.063 168.950 192.874  0.00  0.00    +0.033 HD
ATOM     57  H   UNL     1     149.645 169.295 193.544  0.00  0.00    +0.033 HD
BRANCH  55  58
ATOM     58  C   UNL     1     148.760 170.939 192.520  0.00  0.00    -0.046 A 
ATOM     59  C   UNL     1     147.571 171.407 191.945  0.00  0.00    -0.059 A 
ATOM     60  C   UNL     1     147.331 172.777 191.837  0.00  0.00    -0.062 A 
ATOM     61  C   UNL     1     148.273 173.691 192.305  0.00  0.00    -0.062 A 
ATOM     62  C   UNL     1     149.457 173.236 192.880  0.00  0.00    -0.062 A 
ATOM     63  C   UNL     1     149.701 171.867 192.989  0.00  0.00    -0.059 A 
ATOM     64  H   UNL     1     146.825 170.708 191.574  0.00  0.00    +0.062 HD
ATOM     65  H   UNL     1     146.407 173.133 191.387  0.00  0.00    +0.062 HD
ATOM     66  H   UNL     1     148.085 174.758 192.219  0.00  0.00    +0.062 HD
ATOM     67  H   UNL     1     150.194 173.948 193.245  0.00  0.00    +0.062 HD
ATOM     68  H   UNL     1     150.629 171.526 193.443  0.00  0.00    +0.062 HD
ENDBRANCH  55  58
ENDBRANCH  21  55
BRANCH  16  69
ATOM     69  O   UNL     1     150.156 164.448 188.507  0.00  0.00    -0.387 OA
ATOM     70  H   UNL     1     150.453 164.425 187.582  0.00  0.00    +0.210 HD
ENDBRANCH  16  69
BRANCH   5  71
ATOM     71  O   UNL     1     143.047 166.191 194.005  0.00  0.00    -0.388 OA
ATOM     72  H   UNL     1     143.288 165.250 193.974  0.00  0.00    +0.210 HD
ENDBRANCH   5  71
TORSDOF 6
ENDMDL
MODEL 5
REMARK VINA RESULT:      -6.4      3.550      5.233
REMARK  Name = Cytochalasin B_conf1
REMARK  6 active torsions:
REMARK  status: ('A' for Active; 'I' for Inactive)
REMARK    1  A    between atoms: C_1  and  C_2
REMARK    2  A    between atoms: C_6  and  O_35
REMARK    3  A    between atoms: C_17  and  O_34
REMARK    4  A    between atoms: C_20  and  C_33
REMARK    5  A    between atoms: C_22  and  C_26
REMARK    6  A    between atoms: C_26  and  C_27
REMARK                            x       y       z     vdW  Elec       q    Type
REMARK                         _______ _______ _______ _____ _____    ______ ____
ROOT
ATOM      1  C   UNL     1     153.506 166.438 188.540  0.00  0.00    -0.040 C 
ATOM      2  C   UNL     1     153.052 165.089 189.142  0.00  0.00    -0.050 C 
ATOM      3  C   UNL     1     153.707 164.680 190.473  0.00  0.00    -0.050 C 
ATOM      4  C   UNL     1     153.581 165.665 191.643  0.00  0.00    -0.023 C 
ATOM      5  C   UNL     1     152.262 165.619 192.434  0.00  0.00    +0.074 C 
ATOM      6  C   UNL     1     151.050 165.900 191.602  0.00  0.00    -0.049 C 
ATOM      7  C   UNL     1     150.452 167.094 191.463  0.00  0.00    +0.021 C 
ATOM      8  C   UNL     1     149.344 167.356 190.524  0.00  0.00    +0.333 C 
ATOM      9  O   UNL     1     148.908 168.479 190.325  0.00  0.00    -0.246 OA
ATOM     10  O   UNL     1     148.932 166.220 189.918  0.00  0.00    -0.444 OA
ATOM     11  C   UNL     1     148.081 166.323 188.750  0.00  0.00    +0.202 C 
ATOM     12  C   UNL     1     148.770 167.051 187.565  0.00  0.00    +0.056 C 
ATOM     13  C   UNL     1     150.184 166.551 187.275  0.00  0.00    -0.078 C 
ATOM     14  C   UNL     1     151.300 167.241 187.563  0.00  0.00    -0.087 C 
ATOM     15  C   UNL     1     152.698 166.769 187.264  0.00  0.00    -0.032 C 
ATOM     16  C   UNL     1     147.882 166.987 186.291  0.00  0.00    +0.087 C 
ATOM     17  C   UNL     1     146.393 166.996 186.595  0.00  0.00    -0.045 C 
ATOM     18  C   UNL     1     145.512 166.410 185.766  0.00  0.00    -0.097 C 
ATOM     19  C   UNL     1     146.042 167.665 187.912  0.00  0.00    -0.012 C 
ATOM     20  C   UNL     1     146.659 166.877 189.104  0.00  0.00    +0.033 C 
ATOM     21  C   UNL     1     145.875 165.625 189.556  0.00  0.00    +0.035 C 
ATOM     22  N   UNL     1     146.519 164.542 188.867  0.00  0.00    -0.308 N 
ATOM     23  C   UNL     1     147.774 164.856 188.401  0.00  0.00    +0.258 C 
ATOM     24  O   UNL     1     148.495 164.053 187.832  0.00  0.00    -0.271 OA
ATOM     25  H   UNL     1     153.336 167.240 189.267  0.00  0.00    +0.030 HD
ATOM     26  H   UNL     1     153.266 164.292 188.415  0.00  0.00    +0.027 HD
ATOM     27  H   UNL     1     151.966 165.082 189.256  0.00  0.00    +0.027 HD
ATOM     28  H   UNL     1     153.303 163.707 190.778  0.00  0.00    +0.027 HD
ATOM     29  H   UNL     1     154.775 164.508 190.289  0.00  0.00    +0.027 HD
ATOM     30  H   UNL     1     153.796 166.691 191.323  0.00  0.00    +0.029 HD
ATOM     31  H   UNL     1     154.387 165.433 192.354  0.00  0.00    +0.029 HD
ATOM     32  H   UNL     1     152.141 164.638 192.907  0.00  0.00    +0.064 HD
ATOM     33  H   UNL     1     150.673 165.041 191.050  0.00  0.00    +0.060 HD
ATOM     34  H   UNL     1     150.816 167.970 191.989  0.00  0.00    +0.069 HD
ATOM     35  H   UNL     1     148.874 168.111 187.838  0.00  0.00    +0.042 HD
ATOM     36  H   UNL     1     150.274 165.570 186.809  0.00  0.00    +0.057 HD
ATOM     37  H   UNL     1     151.217 168.223 188.028  0.00  0.00    +0.057 HD
ATOM     38  H   UNL     1     153.193 167.576 186.709  0.00  0.00    +0.031 HD
ATOM     39  H   UNL     1     152.682 165.901 186.593  0.00  0.00    +0.031 HD
ATOM     40  H   UNL     1     148.136 166.103 185.693  0.00  0.00    +0.065 HD
ATOM     41  H   UNL     1     144.447 166.381 185.967  0.00  0.00    +0.054 HD
ATOM     42  H   UNL     1     145.838 165.926 184.849  0.00  0.00    +0.054 HD
ATOM     43  H   UNL     1     146.550 168.642 187.891  0.00  0.00    +0.035 HD
ATOM     44  H   UNL     1     146.694 167.579 189.945  0.00  0.00    +0.037 HD
ATOM     45  H   UNL     1     144.832 165.636 189.232  0.00  0.00    +0.051 HD
ATOM     46  H   UNL     1     146.138 163.609 188.765  0.00  0.00    +0.149 HD
ENDROOT
BRANCH   1  47
ATOM     47  C   UNL     1     155.001 166.417 188.205  0.00  0.00    -0.062 C 
ATOM     48  H   UNL     1     155.545 165.726 188.857  0.00  0.00    +0.023 HD
ATOM     49  H   UNL     1     155.447 167.410 188.310  0.00  0.00    +0.023 HD
ATOM     50  H   UNL     1     155.162 166.101 187.169  0.00  0.00    +0.023 HD
ENDBRANCH   1  47
BRANCH  19  51
ATOM     51  C   UNL     1     144.565 168.020 188.123  0.00  0.00    -0.058 C 
ATOM     52  H   UNL     1     144.305 167.953 189.186  0.00  0.00    +0.024 HD
ATOM     53  H   UNL     1     144.312 169.029 187.789  0.00  0.00    +0.024 HD
ATOM     54  H   UNL     1     143.921 167.315 187.584  0.00  0.00    +0.024 HD
ENDBRANCH  19  51
BRANCH  21  55
ATOM     55  C   UNL     1     145.929 165.435 191.088  0.00  0.00    -0.009 C 
ATOM     56  H   UNL     1     146.197 164.404 191.351  0.00  0.00    +0.033 HD
ATOM     57  H   UNL     1     146.716 166.071 191.513  0.00  0.00    +0.033 HD
BRANCH  55  58
ATOM     58  C   UNL     1     144.620 165.788 191.758  0.00  0.00    -0.046 A 
ATOM     59  C   UNL     1     143.424 165.783 191.029  0.00  0.00    -0.059 A 
ATOM     60  C   UNL     1     142.214 166.088 191.655  0.00  0.00    -0.062 A 
ATOM     61  C   UNL     1     142.189 166.395 193.015  0.00  0.00    -0.062 A 
ATOM     62  C   UNL     1     143.373 166.399 193.749  0.00  0.00    -0.062 A 
ATOM     63  C   UNL     1     144.584 166.096 193.125  0.00  0.00    -0.059 A 
ATOM     64  H   UNL     1     143.425 165.547 189.967  0.00  0.00    +0.062 HD
ATOM     65  H   UNL     1     141.290 166.086 191.082  0.00  0.00    +0.062 HD
ATOM     66  H   UNL     1     141.247 166.633 193.501  0.00  0.00    +0.062 HD
ATOM     67  H   UNL     1     143.354 166.639 194.809  0.00  0.00    +0.062 HD
ATOM     68  H   UNL     1     145.500 166.100 193.712  0.00  0.00    +0.062 HD
ENDBRANCH  55  58
ENDBRANCH  21  55
BRANCH  16  69
ATOM     69  O   UNL     1     148.153 168.137 185.487  0.00  0.00    -0.387 OA
ATOM     70  H   UNL     1     147.883 167.919 184.579  0.00  0.00    +0.210 HD
ENDBRANCH  16  69
BRANCH   5  71
ATOM     71  O   UNL     1     152.332 166.583 193.482  0.00  0.00    -0.388 OA
ATOM     72  H   UNL     1     152.069 167.439 193.103  0.00  0.00    +0.210 HD
ENDBRANCH   5  71
TORSDOF 6
ENDMDL
MODEL 6
REMARK VINA RESULT:      -6.3      2.754      7.919
REMARK  Name = Cytochalasin B_conf1
REMARK  6 active torsions:
REMARK  status: ('A' for Active; 'I' for Inactive)
REMARK    1  A    between atoms: C_1  and  C_2
REMARK    2  A    between atoms: C_6  and  O_35
REMARK    3  A    between atoms: C_17  and  O_34
REMARK    4  A    between atoms: C_20  and  C_33
REMARK    5  A    between atoms: C_22  and  C_26
REMARK    6  A    between atoms: C_26  and  C_27
REMARK                            x       y       z     vdW  Elec       q    Type
REMARK                         _______ _______ _______ _____ _____    ______ ____
ROOT
ATOM      1  C   UNL     1     138.456 170.486 189.205  0.00  0.00    -0.040 C 
ATOM      2  C   UNL     1     139.019 171.911 188.996  0.00  0.00    -0.050 C 
ATOM      3  C   UNL     1     138.447 173.011 189.906  0.00  0.00    -0.050 C 
ATOM      4  C   UNL     1     138.558 172.791 191.421  0.00  0.00    -0.023 C 
ATOM      5  C   UNL     1     139.908 173.149 192.064  0.00  0.00    +0.074 C 
ATOM      6  C   UNL     1     141.065 172.379 191.509  0.00  0.00    -0.049 C 
ATOM      7  C   UNL     1     141.579 171.252 192.026  0.00  0.00    +0.021 C 
ATOM      8  C   UNL     1     142.629 170.449 191.370  0.00  0.00    +0.333 C 
ATOM      9  O   UNL     1     142.985 169.361 191.798  0.00  0.00    -0.246 OA
ATOM     10  O   UNL     1     143.088 171.054 190.252  0.00  0.00    -0.444 OA
ATOM     11  C   UNL     1     143.882 170.284 189.317  0.00  0.00    +0.202 C 
ATOM     12  C   UNL     1     143.100 169.093 188.701  0.00  0.00    +0.056 C 
ATOM     13  C   UNL     1     141.709 169.468 188.191  0.00  0.00    -0.078 C 
ATOM     14  C   UNL     1     140.565 169.123 188.803  0.00  0.00    -0.087 C 
ATOM     15  C   UNL     1     139.189 169.468 188.300  0.00  0.00    -0.032 C 
ATOM     16  C   UNL     1     143.937 168.403 187.588  0.00  0.00    +0.087 C 
ATOM     17  C   UNL     1     145.434 168.444 187.849  0.00  0.00    -0.045 C 
ATOM     18  C   UNL     1     146.315 168.432 186.835  0.00  0.00    -0.097 C 
ATOM     19  C   UNL     1     145.795 168.551 189.320  0.00  0.00    -0.012 C 
ATOM     20  C   UNL     1     145.279 169.896 189.910  0.00  0.00    +0.033 C 
ATOM     21  C   UNL     1     146.159 171.134 189.626  0.00  0.00    +0.035 C 
ATOM     22  N   UNL     1     145.557 171.731 188.467  0.00  0.00    -0.308 N 
ATOM     23  C   UNL     1     144.267 171.314 188.241  0.00  0.00    +0.258 C 
ATOM     24  O   UNL     1     143.576 171.745 187.332  0.00  0.00    -0.271 OA
ATOM     25  H   UNL     1     138.605 170.182 190.247  0.00  0.00    +0.030 HD
ATOM     26  H   UNL     1     138.828 172.213 187.957  0.00  0.00    +0.027 HD
ATOM     27  H   UNL     1     140.107 171.894 189.088  0.00  0.00    +0.027 HD
ATOM     28  H   UNL     1     138.924 173.964 189.646  0.00  0.00    +0.027 HD
ATOM     29  H   UNL     1     137.386 173.140 189.660  0.00  0.00    +0.027 HD
ATOM     30  H   UNL     1     138.265 171.771 191.696  0.00  0.00    +0.029 HD
ATOM     31  H   UNL     1     137.798 173.425 191.900  0.00  0.00    +0.029 HD
ATOM     32  H   UNL     1     140.111 174.219 191.943  0.00  0.00    +0.064 HD
ATOM     33  H   UNL     1     141.473 172.782 190.584  0.00  0.00    +0.060 HD
ATOM     34  H   UNL     1     141.182 170.819 192.938  0.00  0.00    +0.069 HD
ATOM     35  H   UNL     1     142.939 168.350 189.497  0.00  0.00    +0.042 HD
ATOM     36  H   UNL     1     141.664 170.056 187.275  0.00  0.00    +0.057 HD
ATOM     37  H   UNL     1     140.604 168.534 189.719  0.00  0.00    +0.057 HD
ATOM     38  H   UNL     1     138.621 168.530 188.260  0.00  0.00    +0.031 HD
ATOM     39  H   UNL     1     139.233 169.844 187.269  0.00  0.00    +0.031 HD
ATOM     40  H   UNL     1     143.715 168.851 186.611  0.00  0.00    +0.065 HD
ATOM     41  H   UNL     1     147.388 168.483 186.988  0.00  0.00    +0.054 HD
ATOM     42  H   UNL     1     145.983 168.379 185.800  0.00  0.00    +0.054 HD
ATOM     43  H   UNL     1     145.226 167.754 189.822  0.00  0.00    +0.035 HD
ATOM     44  H   UNL     1     145.233 169.752 190.996  0.00  0.00    +0.037 HD
ATOM     45  H   UNL     1     147.185 170.873 189.357  0.00  0.00    +0.051 HD
ATOM     46  H   UNL     1     145.993 172.435 187.884  0.00  0.00    +0.149 HD
ENDROOT
BRANCH   1  47
ATOM     47  C   UNL     1     136.953 170.439 188.911  0.00  0.00    -0.062 C 
ATOM     48  H   UNL     1     136.733 169.773 188.070  0.00  0.00    +0.023 HD
ATOM     49  H   UNL     1     136.563 171.433 188.672  0.00  0.00    +0.023 HD
ATOM     50  H   UNL     1     136.398 170.077 189.782  0.00  0.00    +0.023 HD
ENDBRANCH   1  47
BRANCH  19  51
ATOM     51  C   UNL     1     147.254 168.252 189.686  0.00  0.00    -0.058 C 
ATOM     52  H   UNL     1     147.609 168.959 190.445  0.00  0.00    +0.024 HD
ATOM     53  H   UNL     1     147.401 167.245 190.085  0.00  0.00    +0.024 HD
ATOM     54  H   UNL     1     147.900 168.364 188.808  0.00  0.00    +0.024 HD
ENDBRANCH  19  51
BRANCH  21  55
ATOM     55  C   UNL     1     146.180 172.111 190.822  0.00  0.00    -0.009 C 
ATOM     56  H   UNL     1     146.024 173.145 190.492  0.00  0.00    +0.033 HD
ATOM     57  H   UNL     1     145.350 171.882 191.503  0.00  0.00    +0.033 HD
BRANCH  55  58
ATOM     58  C   UNL     1     147.471 172.034 191.606  0.00  0.00    -0.046 A 
ATOM     59  C   UNL     1     147.617 172.742 192.806  0.00  0.00    -0.059 A 
ATOM     60  C   UNL     1     148.801 172.651 193.539  0.00  0.00    -0.062 A 
ATOM     61  C   UNL     1     149.846 171.851 193.082  0.00  0.00    -0.062 A 
ATOM     62  C   UNL     1     149.710 171.142 191.891  0.00  0.00    -0.062 A 
ATOM     63  C   UNL     1     148.528 171.231 191.156  0.00  0.00    -0.059 A 
ATOM     64  H   UNL     1     146.811 173.371 193.178  0.00  0.00    +0.062 HD
ATOM     65  H   UNL     1     148.909 173.206 194.468  0.00  0.00    +0.062 HD
ATOM     66  H   UNL     1     150.769 171.783 193.653  0.00  0.00    +0.062 HD
ATOM     67  H   UNL     1     150.526 170.518 191.533  0.00  0.00    +0.062 HD
ATOM     68  H   UNL     1     148.435 170.668 190.229  0.00  0.00    +0.062 HD
ENDBRANCH  55  58
ENDBRANCH  21  55
BRANCH  16  69
ATOM     69  O   UNL     1     143.560 167.026 187.519  0.00  0.00    -0.387 OA
ATOM     70  H   UNL     1     143.275 166.766 188.412  0.00  0.00    +0.210 HD
ENDBRANCH  16  69
BRANCH   5  71
ATOM     71  O   UNL     1     139.820 172.896 193.466  0.00  0.00    -0.388 OA
ATOM     72  H   UNL     1     139.626 171.950 193.574  0.00  0.00    +0.210 HD
ENDBRANCH   5  71
TORSDOF 6
ENDMDL
MODEL 7
REMARK VINA RESULT:      -6.3      6.330     12.063
REMARK  Name = Cytochalasin B_conf1
REMARK  6 active torsions:
REMARK  status: ('A' for Active; 'I' for Inactive)
REMARK    1  A    between atoms: C_1  and  C_2
REMARK    2  A    between atoms: C_6  and  O_35
REMARK    3  A    between atoms: C_17  and  O_34
REMARK    4  A    between atoms: C_20  and  C_33
REMARK    5  A    between atoms: C_22  and  C_26
REMARK    6  A    between atoms: C_26  and  C_27
REMARK                            x       y       z     vdW  Elec       q    Type
REMARK                         _______ _______ _______ _____ _____    ______ ____
ROOT
ATOM      1  C   UNL     1     149.201 166.750 190.304  0.00  0.00    -0.040 C 
ATOM      2  C   UNL     1     150.298 167.791 190.625  0.00  0.00    -0.050 C 
ATOM      3  C   UNL     1     150.496 168.138 192.111  0.00  0.00    -0.050 C 
ATOM      4  C   UNL     1     150.806 166.975 193.063  0.00  0.00    -0.023 C 
ATOM      5  C   UNL     1     152.271 166.509 193.115  0.00  0.00    +0.074 C 
ATOM      6  C   UNL     1     152.802 166.039 191.797  0.00  0.00    -0.049 C 
ATOM      7  C   UNL     1     152.837 164.765 191.373  0.00  0.00    +0.021 C 
ATOM      8  C   UNL     1     153.241 164.361 190.012  0.00  0.00    +0.333 C 
ATOM      9  O   UNL     1     153.138 163.210 189.615  0.00  0.00    -0.246 OA
ATOM     10  O   UNL     1     153.682 165.417 189.294  0.00  0.00    -0.444 OA
ATOM     11  C   UNL     1     153.821 165.276 187.859  0.00  0.00    +0.202 C 
ATOM     12  C   UNL     1     152.472 164.986 187.149  0.00  0.00    +0.056 C 
ATOM     13  C   UNL     1     151.336 165.910 187.586  0.00  0.00    -0.078 C 
ATOM     14  C   UNL     1     150.316 165.528 188.372  0.00  0.00    -0.087 C 
ATOM     15  C   UNL     1     149.180 166.423 188.793  0.00  0.00    -0.032 C 
ATOM     16  C   UNL     1     152.648 165.008 185.605  0.00  0.00    +0.087 C 
ATOM     17  C   UNL     1     154.014 164.524 185.149  0.00  0.00    -0.045 C 
ATOM     18  C   UNL     1     154.560 164.966 184.003  0.00  0.00    -0.097 C 
ATOM     19  C   UNL     1     154.681 163.570 186.124  0.00  0.00    -0.012 C 
ATOM     20  C   UNL     1     154.974 164.287 187.473  0.00  0.00    +0.033 C 
ATOM     21  C   UNL     1     156.243 165.169 187.502  0.00  0.00    +0.035 C 
ATOM     22  N   UNL     1     155.756 166.490 187.223  0.00  0.00    -0.308 N 
ATOM     23  C   UNL     1     154.403 166.631 187.421  0.00  0.00    +0.258 C 
ATOM     24  O   UNL     1     153.814 167.691 187.281  0.00  0.00    -0.271 OA
ATOM     25  H   UNL     1     149.407 165.821 190.849  0.00  0.00    +0.030 HD
ATOM     26  H   UNL     1     150.055 168.726 190.101  0.00  0.00    +0.027 HD
ATOM     27  H   UNL     1     151.249 167.468 190.198  0.00  0.00    +0.027 HD
ATOM     28  H   UNL     1     151.291 168.889 192.192  0.00  0.00    +0.027 HD
ATOM     29  H   UNL     1     149.587 168.636 192.469  0.00  0.00    +0.027 HD
ATOM     30  H   UNL     1     150.143 166.122 192.876  0.00  0.00    +0.029 HD
ATOM     31  H   UNL     1     150.540 167.303 194.077  0.00  0.00    +0.029 HD
ATOM     32  H   UNL     1     152.911 167.319 193.480  0.00  0.00    +0.064 HD
ATOM     33  H   UNL     1     153.148 166.835 191.140  0.00  0.00    +0.060 HD
ATOM     34  H   UNL     1     152.485 163.953 192.001  0.00  0.00    +0.069 HD
ATOM     35  H   UNL     1     152.158 163.969 187.427  0.00  0.00    +0.042 HD
ATOM     36  H   UNL     1     151.376 166.940 187.233  0.00  0.00    +0.057 HD
ATOM     37  H   UNL     1     150.270 164.499 188.729  0.00  0.00    +0.057 HD
ATOM     38  H   UNL     1     148.251 165.896 188.540  0.00  0.00    +0.031 HD
ATOM     39  H   UNL     1     149.176 167.351 188.207  0.00  0.00    +0.031 HD
ATOM     40  H   UNL     1     152.459 166.016 185.214  0.00  0.00    +0.065 HD
ATOM     41  H   UNL     1     155.542 164.656 183.663  0.00  0.00    +0.054 HD
ATOM     42  H   UNL     1     154.034 165.671 183.364  0.00  0.00    +0.054 HD
ATOM     43  H   UNL     1     153.928 162.796 186.341  0.00  0.00    +0.035 HD
ATOM     44  H   UNL     1     155.094 163.493 188.219  0.00  0.00    +0.037 HD
ATOM     45  H   UNL     1     156.954 164.915 186.713  0.00  0.00    +0.051 HD
ATOM     46  H   UNL     1     156.334 167.279 186.959  0.00  0.00    +0.149 HD
ENDROOT
BRANCH   1  47
ATOM     47  C   UNL     1     147.820 167.253 190.736  0.00  0.00    -0.062 C 
ATOM     48  H   UNL     1     147.269 167.676 189.890  0.00  0.00    +0.023 HD
ATOM     49  H   UNL     1     147.900 168.020 191.511  0.00  0.00    +0.023 HD
ATOM     50  H   UNL     1     147.222 166.436 191.153  0.00  0.00    +0.023 HD
ENDBRANCH   1  47
BRANCH  19  51
ATOM     51  C   UNL     1     155.881 162.779 185.588  0.00  0.00    -0.058 C 
ATOM     52  H   UNL     1     155.579 161.757 185.328  0.00  0.00    +0.024 HD
ATOM     53  H   UNL     1     156.326 163.223 184.695  0.00  0.00    +0.024 HD
ATOM     54  H   UNL     1     156.662 162.704 186.353  0.00  0.00    +0.024 HD
ENDBRANCH  19  51
BRANCH  21  55
ATOM     55  C   UNL     1     156.957 165.104 188.869  0.00  0.00    -0.009 C 
ATOM     56  H   UNL     1     157.504 166.032 189.076  0.00  0.00    +0.033 HD
ATOM     57  H   UNL     1     156.214 165.006 189.672  0.00  0.00    +0.033 HD
BRANCH  55  58
ATOM     58  C   UNL     1     157.915 163.937 188.965  0.00  0.00    -0.046 A 
ATOM     59  C   UNL     1     158.668 163.544 187.851  0.00  0.00    -0.059 A 
ATOM     60  C   UNL     1     159.568 162.481 187.947  0.00  0.00    -0.062 A 
ATOM     61  C   UNL     1     159.725 161.806 189.157  0.00  0.00    -0.062 A 
ATOM     62  C   UNL     1     158.982 162.192 190.270  0.00  0.00    -0.062 A 
ATOM     63  C   UNL     1     158.081 163.253 190.177  0.00  0.00    -0.059 A 
ATOM     64  H   UNL     1     158.558 164.059 186.899  0.00  0.00    +0.062 HD
ATOM     65  H   UNL     1     160.147 162.179 187.078  0.00  0.00    +0.062 HD
ATOM     66  H   UNL     1     160.425 160.978 189.230  0.00  0.00    +0.062 HD
ATOM     67  H   UNL     1     159.103 161.665 191.214  0.00  0.00    +0.062 HD
ATOM     68  H   UNL     1     157.510 163.545 191.055  0.00  0.00    +0.062 HD
ENDBRANCH  55  58
ENDBRANCH  21  55
BRANCH  16  69
ATOM     69  O   UNL     1     151.677 164.137 185.021  0.00  0.00    -0.387 OA
ATOM     70  H   UNL     1     151.860 164.107 184.067  0.00  0.00    +0.210 HD
ENDBRANCH  16  69
BRANCH   5  71
ATOM     71  O   UNL     1     152.370 165.441 194.056  0.00  0.00    -0.388 OA
ATOM     72  H   UNL     1     152.659 164.653 193.566  0.00  0.00    +0.210 HD
ENDBRANCH   5  71
TORSDOF 6
ENDMDL
MODEL 8
REMARK VINA RESULT:      -6.3      4.550      7.278
REMARK  Name = Cytochalasin B_conf1
REMARK  6 active torsions:
REMARK  status: ('A' for Active; 'I' for Inactive)
REMARK    1  A    between atoms: C_1  and  C_2
REMARK    2  A    between atoms: C_6  and  O_35
REMARK    3  A    between atoms: C_17  and  O_34
REMARK    4  A    between atoms: C_20  and  C_33
REMARK    5  A    between atoms: C_22  and  C_26
REMARK    6  A    between atoms: C_26  and  C_27
REMARK                            x       y       z     vdW  Elec       q    Type
REMARK                         _______ _______ _______ _____ _____    ______ ____
ROOT
ATOM      1  C   UNL     1     149.577 165.535 185.745  0.00  0.00    -0.040 C 
ATOM      2  C   UNL     1     149.496 167.076 185.836  0.00  0.00    -0.050 C 
ATOM      3  C   UNL     1     148.269 167.734 185.180  0.00  0.00    -0.050 C 
ATOM      4  C   UNL     1     146.888 167.266 185.657  0.00  0.00    -0.023 C 
ATOM      5  C   UNL     1     146.365 167.900 186.958  0.00  0.00    +0.074 C 
ATOM      6  C   UNL     1     147.248 167.663 188.142  0.00  0.00    -0.049 C 
ATOM      7  C   UNL     1     147.106 166.679 189.045  0.00  0.00    +0.021 C 
ATOM      8  C   UNL     1     148.079 166.398 190.118  0.00  0.00    +0.333 C 
ATOM      9  O   UNL     1     147.990 165.418 190.841  0.00  0.00    -0.246 OA
ATOM     10  O   UNL     1     149.061 167.326 190.149  0.00  0.00    -0.444 OA
ATOM     11  C   UNL     1     150.259 167.049 190.916  0.00  0.00    +0.202 C 
ATOM     12  C   UNL     1     151.041 165.818 190.386  0.00  0.00    +0.056 C 
ATOM     13  C   UNL     1     151.247 165.825 188.872  0.00  0.00    -0.078 C 
ATOM     14  C   UNL     1     150.591 165.020 188.020  0.00  0.00    -0.087 C 
ATOM     15  C   UNL     1     150.799 165.003 186.529  0.00  0.00    -0.032 C 
ATOM     16  C   UNL     1     152.395 165.665 191.134  0.00  0.00    +0.087 C 
ATOM     17  C   UNL     1     152.338 166.127 192.581  0.00  0.00    -0.045 C 
ATOM     18  C   UNL     1     153.433 166.597 193.202  0.00  0.00    -0.097 C 
ATOM     19  C   UNL     1     150.951 166.050 193.193  0.00  0.00    -0.012 C 
ATOM     20  C   UNL     1     149.977 167.016 192.457  0.00  0.00    +0.033 C 
ATOM     21  C   UNL     1     150.058 168.500 192.881  0.00  0.00    +0.035 C 
ATOM     22  N   UNL     1     150.937 169.092 191.912  0.00  0.00    -0.308 N 
ATOM     23  C   UNL     1     151.084 168.340 190.770  0.00  0.00    +0.258 C 
ATOM     24  O   UNL     1     151.752 168.699 189.814  0.00  0.00    -0.271 OA
ATOM     25  H   UNL     1     148.674 165.093 186.184  0.00  0.00    +0.030 HD
ATOM     26  H   UNL     1     150.389 167.501 185.358  0.00  0.00    +0.027 HD
ATOM     27  H   UNL     1     149.560 167.388 186.880  0.00  0.00    +0.027 HD
ATOM     28  H   UNL     1     148.344 168.821 185.310  0.00  0.00    +0.027 HD
ATOM     29  H   UNL     1     148.328 167.565 184.098  0.00  0.00    +0.027 HD
ATOM     30  H   UNL     1     146.840 166.173 185.723  0.00  0.00    +0.029 HD
ATOM     31  H   UNL     1     146.166 167.518 184.868  0.00  0.00    +0.029 HD
ATOM     32  H   UNL     1     146.240 168.980 186.827  0.00  0.00    +0.064 HD
ATOM     33  H   UNL     1     148.089 168.350 188.223  0.00  0.00    +0.060 HD
ATOM     34  H   UNL     1     146.286 165.971 188.980  0.00  0.00    +0.069 HD
ATOM     35  H   UNL     1     150.444 164.921 190.606  0.00  0.00    +0.042 HD
ATOM     36  H   UNL     1     151.971 166.537 188.477  0.00  0.00    +0.057 HD
ATOM     37  H   UNL     1     149.866 164.305 188.409  0.00  0.00    +0.057 HD
ATOM     38  H   UNL     1     150.996 163.960 186.248  0.00  0.00    +0.031 HD
ATOM     39  H   UNL     1     151.698 165.569 186.254  0.00  0.00    +0.031 HD
ATOM     40  H   UNL     1     153.188 166.203 190.600  0.00  0.00    +0.065 HD
ATOM     41  H   UNL     1     153.419 166.954 194.226  0.00  0.00    +0.054 HD
ATOM     42  H   UNL     1     154.393 166.647 192.692  0.00  0.00    +0.054 HD
ATOM     43  H   UNL     1     150.592 165.030 192.984  0.00  0.00    +0.035 HD
ATOM     44  H   UNL     1     148.967 166.654 192.678  0.00  0.00    +0.037 HD
ATOM     45  H   UNL     1     150.522 168.637 193.860  0.00  0.00    +0.051 HD
ATOM     46  H   UNL     1     151.378 169.999 192.004  0.00  0.00    +0.149 HD
ENDROOT
BRANCH   1  47
ATOM     47  C   UNL     1     149.666 165.072 184.287  0.00  0.00    -0.062 C 
ATOM     48  H   UNL     1     148.978 164.243 184.091  0.00  0.00    +0.023 HD
ATOM     49  H   UNL     1     150.678 164.743 184.036  0.00  0.00    +0.023 HD
ATOM     50  H   UNL     1     149.414 165.890 183.604  0.00  0.00    +0.023 HD
ENDBRANCH   1  47
BRANCH  19  51
ATOM     51  C   UNL     1     150.874 166.164 194.720  0.00  0.00    -0.058 C 
ATOM     52  H   UNL     1     150.333 165.307 195.140  0.00  0.00    +0.024 HD
ATOM     53  H   UNL     1     151.856 166.195 195.200  0.00  0.00    +0.024 HD
ATOM     54  H   UNL     1     150.329 167.069 195.010  0.00  0.00    +0.024 HD
ENDBRANCH  19  51
BRANCH  21  55
ATOM     55  C   UNL     1     148.670 169.176 192.875  0.00  0.00    -0.009 C 
ATOM     56  H   UNL     1     147.977 168.654 192.204  0.00  0.00    +0.033 HD
ATOM     57  H   UNL     1     148.224 169.116 193.877  0.00  0.00    +0.033 HD
BRANCH  55  58
ATOM     58  C   UNL     1     148.740 170.632 192.474  0.00  0.00    -0.046 A 
ATOM     59  C   UNL     1     148.254 171.050 191.228  0.00  0.00    -0.059 A 
ATOM     60  C   UNL     1     148.299 172.398 190.868  0.00  0.00    -0.062 A 
ATOM     61  C   UNL     1     148.825 173.339 191.751  0.00  0.00    -0.062 A 
ATOM     62  C   UNL     1     149.308 172.934 192.993  0.00  0.00    -0.062 A 
ATOM     63  C   UNL     1     149.266 171.587 193.355  0.00  0.00    -0.059 A 
ATOM     64  H   UNL     1     147.840 170.329 190.526  0.00  0.00    +0.062 HD
ATOM     65  H   UNL     1     147.923 172.714 189.898  0.00  0.00    +0.062 HD
ATOM     66  H   UNL     1     148.861 174.388 191.470  0.00  0.00    +0.062 HD
ATOM     67  H   UNL     1     149.721 173.667 193.682  0.00  0.00    +0.062 HD
ATOM     68  H   UNL     1     149.644 171.286 194.329  0.00  0.00    +0.062 HD
ENDBRANCH  55  58
ENDBRANCH  21  55
BRANCH  16  69
ATOM     69  O   UNL     1     152.755 164.282 191.148  0.00  0.00    -0.387 OA
ATOM     70  H   UNL     1     153.724 164.240 191.070  0.00  0.00    +0.210 HD
ENDBRANCH  16  69
BRANCH   5  71
ATOM     71  O   UNL     1     145.074 167.360 187.234  0.00  0.00    -0.388 OA
ATOM     72  H   UNL     1     145.173 166.395 187.291  0.00  0.00    +0.210 HD
ENDBRANCH   5  71
TORSDOF 6
ENDMDL
MODEL 9
REMARK VINA RESULT:      -6.3      4.230      7.756
REMARK  Name = Cytochalasin B_conf1
REMARK  6 active torsions:
REMARK  status: ('A' for Active; 'I' for Inactive)
REMARK    1  A    between atoms: C_1  and  C_2
REMARK    2  A    between atoms: C_6  and  O_35
REMARK    3  A    between atoms: C_17  and  O_34
REMARK    4  A    between atoms: C_20  and  C_33
REMARK    5  A    between atoms: C_22  and  C_26
REMARK    6  A    between atoms: C_26  and  C_27
REMARK                            x       y       z     vdW  Elec       q    Type
REMARK                         _______ _______ _______ _____ _____    ______ ____
ROOT
ATOM      1  C   UNL     1     150.506 164.519 184.806  0.00  0.00    -0.040 C 
ATOM      2  C   UNL     1     150.027 163.386 185.741  0.00  0.00    -0.050 C 
ATOM      3  C   UNL     1     150.992 162.203 185.930  0.00  0.00    -0.050 C 
ATOM      4  C   UNL     1     152.402 162.528 186.441  0.00  0.00    -0.023 C 
ATOM      5  C   UNL     1     152.549 162.717 187.962  0.00  0.00    +0.074 C 
ATOM      6  C   UNL     1     151.707 163.822 188.517  0.00  0.00    -0.049 C 
ATOM      7  C   UNL     1     152.109 165.085 188.731  0.00  0.00    +0.021 C 
ATOM      8  C   UNL     1     151.209 166.177 189.150  0.00  0.00    +0.333 C 
ATOM      9  O   UNL     1     151.576 167.340 189.211  0.00  0.00    -0.246 OA
ATOM     10  O   UNL     1     149.963 165.719 189.403  0.00  0.00    -0.444 OA
ATOM     11  C   UNL     1     148.879 166.673 189.519  0.00  0.00    +0.202 C 
ATOM     12  C   UNL     1     148.634 167.467 188.208  0.00  0.00    +0.056 C 
ATOM     13  C   UNL     1     148.573 166.588 186.959  0.00  0.00    -0.078 C 
ATOM     14  C   UNL     1     149.545 166.529 186.033  0.00  0.00    -0.087 C 
ATOM     15  C   UNL     1     149.488 165.683 184.788  0.00  0.00    -0.032 C 
ATOM     16  C   UNL     1     147.362 168.353 188.331  0.00  0.00    +0.087 C 
ATOM     17  C   UNL     1     147.125 168.868 189.740  0.00  0.00    -0.045 C 
ATOM     18  C   UNL     1     145.884 169.144 190.177  0.00  0.00    -0.097 C 
ATOM     19  C   UNL     1     148.389 168.977 190.573  0.00  0.00    -0.012 C 
ATOM     20  C   UNL     1     149.017 167.571 190.795  0.00  0.00    +0.033 C 
ATOM     21  C   UNL     1     148.377 166.721 191.917  0.00  0.00    +0.035 C 
ATOM     22  N   UNL     1     147.435 165.886 191.227  0.00  0.00    -0.308 N 
ATOM     23  C   UNL     1     147.666 165.796 189.874  0.00  0.00    +0.258 C 
ATOM     24  O   UNL     1     147.000 165.097 189.128  0.00  0.00    -0.271 OA
ATOM     25  H   UNL     1     151.464 164.912 185.166  0.00  0.00    +0.030 HD
ATOM     26  H   UNL     1     149.086 162.979 185.344  0.00  0.00    +0.027 HD
ATOM     27  H   UNL     1     149.765 163.799 186.717  0.00  0.00    +0.027 HD
ATOM     28  H   UNL     1     150.526 161.474 186.605  0.00  0.00    +0.027 HD
ATOM     29  H   UNL     1     151.092 161.687 184.968  0.00  0.00    +0.027 HD
ATOM     30  H   UNL     1     152.828 163.387 185.910  0.00  0.00    +0.029 HD
ATOM     31  H   UNL     1     153.054 161.689 186.160  0.00  0.00    +0.029 HD
ATOM     32  H   UNL     1     152.293 161.788 188.483  0.00  0.00    +0.064 HD
ATOM     33  H   UNL     1     150.674 163.545 188.718  0.00  0.00    +0.060 HD
ATOM     34  H   UNL     1     153.129 165.393 188.526  0.00  0.00    +0.069 HD
ATOM     35  H   UNL     1     149.489 168.142 188.060  0.00  0.00    +0.042 HD
ATOM     36  H   UNL     1     147.682 165.976 186.831  0.00  0.00    +0.057 HD
ATOM     37  H   UNL     1     150.439 167.140 186.154  0.00  0.00    +0.057 HD
ATOM     38  H   UNL     1     149.700 166.349 183.942  0.00  0.00    +0.031 HD
ATOM     39  H   UNL     1     148.475 165.295 184.626  0.00  0.00    +0.031 HD
ATOM     40  H   UNL     1     146.480 167.803 187.979  0.00  0.00    +0.065 HD
ATOM     41  H   UNL     1     145.680 169.492 191.184  0.00  0.00    +0.054 HD
ATOM     42  H   UNL     1     145.018 169.018 189.531  0.00  0.00    +0.054 HD
ATOM     43  H   UNL     1     149.103 169.541 189.953  0.00  0.00    +0.035 HD
ATOM     44  H   UNL     1     150.067 167.745 191.057  0.00  0.00    +0.037 HD
ATOM     45  H   UNL     1     147.811 167.320 192.633  0.00  0.00    +0.051 HD
ATOM     46  H   UNL     1     146.694 165.356 191.670  0.00  0.00    +0.149 HD
ENDROOT
BRANCH   1  47
ATOM     47  C   UNL     1     150.716 164.004 183.378  0.00  0.00    -0.062 C 
ATOM     48  H   UNL     1     149.792 163.583 182.968  0.00  0.00    +0.023 HD
ATOM     49  H   UNL     1     151.490 163.232 183.344  0.00  0.00    +0.023 HD
ATOM     50  H   UNL     1     151.041 164.815 182.717  0.00  0.00    +0.023 HD
ENDBRANCH   1  47
BRANCH  19  51
ATOM     51  C   UNL     1     148.286 169.802 191.862  0.00  0.00    -0.058 C 
ATOM     52  H   UNL     1     147.749 170.740 191.673  0.00  0.00    +0.024 HD
ATOM     53  H   UNL     1     147.758 169.282 192.665  0.00  0.00    +0.024 HD
ATOM     54  H   UNL     1     149.284 170.065 192.230  0.00  0.00    +0.024 HD
ENDBRANCH  19  51
BRANCH  21  55
ATOM     55  C   UNL     1     149.430 165.883 192.674  0.00  0.00    -0.009 C 
ATOM     56  H   UNL     1     149.402 164.832 192.360  0.00  0.00    +0.033 HD
ATOM     57  H   UNL     1     150.438 166.244 192.430  0.00  0.00    +0.033 HD
BRANCH  55  58
ATOM     58  C   UNL     1     149.251 165.952 194.174  0.00  0.00    -0.046 A 
ATOM     59  C   UNL     1     150.343 165.752 195.030  0.00  0.00    -0.059 A 
ATOM     60  C   UNL     1     150.179 165.838 196.413  0.00  0.00    -0.062 A 
ATOM     61  C   UNL     1     148.928 166.130 196.952  0.00  0.00    -0.062 A 
ATOM     62  C   UNL     1     147.838 166.334 196.110  0.00  0.00    -0.062 A 
ATOM     63  C   UNL     1     147.997 166.247 194.726  0.00  0.00    -0.059 A 
ATOM     64  H   UNL     1     151.326 165.522 194.626  0.00  0.00    +0.062 HD
ATOM     65  H   UNL     1     151.030 165.678 197.072  0.00  0.00    +0.062 HD
ATOM     66  H   UNL     1     148.802 166.196 198.029  0.00  0.00    +0.062 HD
ATOM     67  H   UNL     1     146.860 166.560 196.529  0.00  0.00    +0.062 HD
ATOM     68  H   UNL     1     147.137 166.411 194.080  0.00  0.00    +0.062 HD
ENDBRANCH  55  58
ENDBRANCH  21  55
BRANCH  16  69
ATOM     69  O   UNL     1     147.517 169.494 187.485  0.00  0.00    -0.387 OA
ATOM     70  H   UNL     1     148.117 170.107 187.944  0.00  0.00    +0.210 HD
ENDBRANCH  16  69
BRANCH   5  71
ATOM     71  O   UNL     1     153.918 162.995 188.250  0.00  0.00    -0.388 OA
ATOM     72  H   UNL     1     154.274 162.224 188.723  0.00  0.00    +0.210 HD
ENDBRANCH   5  71
TORSDOF 6
ENDMDL
MODEL 10
REMARK VINA RESULT:      -6.2     11.276     14.284
REMARK  Name = Cytochalasin B_conf1
REMARK  6 active torsions:
REMARK  status: ('A' for Active; 'I' for Inactive)
REMARK    1  A    between atoms: C_1  and  C_2
REMARK    2  A    between atoms: C_6  and  O_35
REMARK    3  A    between atoms: C_17  and  O_34
REMARK    4  A    between atoms: C_20  and  C_33
REMARK    5  A    between atoms: C_22  and  C_26
REMARK    6  A    between atoms: C_26  and  C_27
REMARK                            x       y       z     vdW  Elec       q    Type
REMARK                         _______ _______ _______ _____ _____    ______ ____
ROOT
ATOM      1  C   UNL     1     149.270 185.357 188.647  0.00  0.00    -0.040 C 
ATOM      2  C   UNL     1     148.559 185.614 187.298  0.00  0.00    -0.050 C 
ATOM      3  C   UNL     1     149.462 185.704 186.057  0.00  0.00    -0.050 C 
ATOM      4  C   UNL     1     150.373 184.502 185.768  0.00  0.00    -0.023 C 
ATOM      5  C   UNL     1     149.721 183.313 185.041  0.00  0.00    +0.074 C 
ATOM      6  C   UNL     1     148.567 182.713 185.781  0.00  0.00    -0.049 C 
ATOM      7  C   UNL     1     148.625 181.654 186.604  0.00  0.00    +0.021 C 
ATOM      8  C   UNL     1     147.490 181.181 187.421  0.00  0.00    +0.333 C 
ATOM      9  O   UNL     1     147.609 180.298 188.256  0.00  0.00    -0.246 OA
ATOM     10  O   UNL     1     146.362 181.871 187.143  0.00  0.00    -0.444 OA
ATOM     11  C   UNL     1     145.239 181.766 188.053  0.00  0.00    +0.202 C 
ATOM     12  C   UNL     1     145.563 182.301 189.473  0.00  0.00    +0.056 C 
ATOM     13  C   UNL     1     146.253 183.664 189.475  0.00  0.00    -0.078 C 
ATOM     14  C   UNL     1     147.552 183.849 189.763  0.00  0.00    -0.087 C 
ATOM     15  C   UNL     1     148.239 185.189 189.788  0.00  0.00    -0.032 C 
ATOM     16  C   UNL     1     144.285 182.320 190.358  0.00  0.00    +0.087 C 
ATOM     17  C   UNL     1     143.311 181.201 190.030  0.00  0.00    -0.045 C 
ATOM     18  C   UNL     1     141.992 181.346 190.241  0.00  0.00    -0.097 C 
ATOM     19  C   UNL     1     143.968 179.979 189.414  0.00  0.00    -0.012 C 
ATOM     20  C   UNL     1     144.598 180.337 188.036  0.00  0.00    +0.033 C 
ATOM     21  C   UNL     1     143.618 180.384 186.843  0.00  0.00    +0.035 C 
ATOM     22  N   UNL     1     143.269 181.772 186.733  0.00  0.00    -0.308 N 
ATOM     23  C   UNL     1     144.148 182.613 187.374  0.00  0.00    +0.258 C 
ATOM     24  O   UNL     1     144.046 183.829 187.352  0.00  0.00    -0.271 OA
ATOM     25  H   UNL     1     149.857 184.434 188.582  0.00  0.00    +0.030 HD
ATOM     26  H   UNL     1     148.007 186.561 187.370  0.00  0.00    +0.027 HD
ATOM     27  H   UNL     1     147.793 184.853 187.135  0.00  0.00    +0.027 HD
ATOM     28  H   UNL     1     148.833 185.896 185.179  0.00  0.00    +0.027 HD
ATOM     29  H   UNL     1     150.098 186.592 186.160  0.00  0.00    +0.027 HD
ATOM     30  H   UNL     1     150.878 184.160 186.678  0.00  0.00    +0.029 HD
ATOM     31  H   UNL     1     151.191 184.858 185.126  0.00  0.00    +0.029 HD
ATOM     32  H   UNL     1     149.377 183.621 184.048  0.00  0.00    +0.064 HD
ATOM     33  H   UNL     1     147.621 183.233 185.639  0.00  0.00    +0.060 HD
ATOM     34  H   UNL     1     149.558 181.126 186.776  0.00  0.00    +0.069 HD
ATOM     35  H   UNL     1     146.273 181.603 189.940  0.00  0.00    +0.042 HD
ATOM     36  H   UNL     1     145.639 184.527 189.219  0.00  0.00    +0.057 HD
ATOM     37  H   UNL     1     148.172 182.991 190.020  0.00  0.00    +0.057 HD
ATOM     38  H   UNL     1     148.744 185.269 190.759  0.00  0.00    +0.031 HD
ATOM     39  H   UNL     1     147.506 186.005 189.755  0.00  0.00    +0.031 HD
ATOM     40  H   UNL     1     143.780 183.291 190.277  0.00  0.00    +0.065 HD
ATOM     41  H   UNL     1     141.270 180.575 189.997  0.00  0.00    +0.054 HD
ATOM     42  H   UNL     1     141.586 182.262 190.664  0.00  0.00    +0.054 HD
ATOM     43  H   UNL     1     144.807 179.727 190.081  0.00  0.00    +0.035 HD
ATOM     44  H   UNL     1     145.344 179.560 187.834  0.00  0.00    +0.037 HD
ATOM     45  H   UNL     1     142.692 179.835 187.032  0.00  0.00    +0.051 HD
ATOM     46  H   UNL     1     142.491 182.135 186.196  0.00  0.00    +0.149 HD
ENDROOT
BRANCH   1  47
ATOM     47  C   UNL     1     150.229 186.501 188.991  0.00  0.00    -0.062 C 
ATOM     48  H   UNL     1     150.211 187.280 188.221  0.00  0.00    +0.023 HD
ATOM     49  H   UNL     1     151.257 186.142 189.092  0.00  0.00    +0.023 HD
ATOM     50  H   UNL     1     149.955 186.964 189.946  0.00  0.00    +0.023 HD
ENDBRANCH   1  47
BRANCH  19  51
ATOM     51  C   UNL     1     143.125 178.699 189.378  0.00  0.00    -0.058 C 
ATOM     52  H   UNL     1     143.619 177.934 188.766  0.00  0.00    +0.024 HD
ATOM     53  H   UNL     1     142.957 178.265 190.366  0.00  0.00    +0.024 HD
ATOM     54  H   UNL     1     142.147 178.897 188.926  0.00  0.00    +0.024 HD
ENDBRANCH  19  51
BRANCH  21  55
ATOM     55  C   UNL     1     144.266 179.856 185.545  0.00  0.00    -0.009 C 
ATOM     56  H   UNL     1     143.601 179.997 184.683  0.00  0.00    +0.033 HD
ATOM     57  H   UNL     1     145.174 180.432 185.323  0.00  0.00    +0.033 HD
BRANCH  55  58
ATOM     58  C   UNL     1     144.642 178.395 185.641  0.00  0.00    -0.046 A 
ATOM     59  C   UNL     1     143.733 177.459 186.153  0.00  0.00    -0.059 A 
ATOM     60  C   UNL     1     144.075 176.108 186.221  0.00  0.00    -0.062 A 
ATOM     61  C   UNL     1     145.324 175.680 185.774  0.00  0.00    -0.062 A 
ATOM     62  C   UNL     1     146.233 176.601 185.260  0.00  0.00    -0.062 A 
ATOM     63  C   UNL     1     145.895 177.954 185.193  0.00  0.00    -0.059 A 
ATOM     64  H   UNL     1     142.755 177.776 186.507  0.00  0.00    +0.062 HD
ATOM     65  H   UNL     1     143.366 175.388 186.623  0.00  0.00    +0.062 HD
ATOM     66  H   UNL     1     145.589 174.627 185.828  0.00  0.00    +0.062 HD
ATOM     67  H   UNL     1     147.208 176.269 184.913  0.00  0.00    +0.062 HD
ATOM     68  H   UNL     1     146.614 178.662 184.787  0.00  0.00    +0.062 HD
ENDBRANCH  55  58
ENDBRANCH  21  55
BRANCH  16  69
ATOM     69  O   UNL     1     144.672 182.154 191.724  0.00  0.00    -0.387 OA
ATOM     70  H   UNL     1     143.865 181.942 192.223  0.00  0.00    +0.210 HD
ENDBRANCH  16  69
BRANCH   5  71
ATOM     71  O   UNL     1     150.713 182.306 184.847  0.00  0.00    -0.388 OA
ATOM     72  H   UNL     1     150.410 181.510 185.316  0.00  0.00    +0.210 HD
ENDBRANCH   5  71
TORSDOF 6
ENDMDL
