MODEL 1
REMARK VINA RESULT:      -6.5      0.000      0.000
REMARK  Name = Cytochalasin B_conf3
REMARK  6 active torsions:
REMARK  status: ('A' for Active; 'I' for Inactive)
REMARK    1  A    between atoms: C_1  and  C_2
REMARK    2  A    between atoms: C_6  and  O_35
REMARK    3  A    between atoms: C_17  and  O_34
REMARK    4  A    between atoms: C_20  and  C_33
REMARK    5  A    between atoms: C_22  and  C_26
REMARK    6  A    between atoms: C_26  and  C_27
REMARK                            x       y       z     vdW  Elec       q    Type
REMARK                         _______ _______ _______ _____ _____    ______ ____
ROOT
ATOM      1  C   UNL     1     150.160 165.463 194.713  0.00  0.00    -0.040 C 
ATOM      2  C   UNL     1     151.461 166.131 194.208  0.00  0.00    -0.050 C 
ATOM      3  C   UNL     1     151.772 165.787 192.755  0.00  0.00    -0.050 C 
ATOM      4  C   UNL     1     152.948 166.605 192.189  0.00  0.00    -0.023 C 
ATOM      5  C   UNL     1     153.157 166.394 190.675  0.00  0.00    +0.074 C 
ATOM      6  C   UNL     1     151.870 166.659 189.944  0.00  0.00    -0.049 C 
ATOM      7  C   UNL     1     151.085 165.703 189.415  0.00  0.00    +0.021 C 
ATOM      8  C   UNL     1     149.660 165.908 189.098  0.00  0.00    +0.333 C 
ATOM      9  O   UNL     1     148.934 164.993 188.738  0.00  0.00    -0.246 OA
ATOM     10  O   UNL     1     149.273 167.178 189.355  0.00  0.00    -0.444 OA
ATOM     11  C   UNL     1     147.859 167.451 189.490  0.00  0.00    +0.202 C 
ATOM     12  C   UNL     1     147.226 166.722 190.715  0.00  0.00    +0.056 C 
ATOM     13  C   UNL     1     147.945 166.931 192.054  0.00  0.00    -0.078 C 
ATOM     14  C   UNL     1     148.376 165.951 192.871  0.00  0.00    -0.087 C 
ATOM     15  C   UNL     1     148.870 166.205 194.277  0.00  0.00    -0.032 C 
ATOM     16  C   UNL     1     145.730 167.135 190.865  0.00  0.00    +0.087 C 
ATOM     17  C   UNL     1     145.010 167.326 189.541  0.00  0.00    -0.045 C 
ATOM     18  C   UNL     1     143.889 168.068 189.478  0.00  0.00    -0.097 C 
ATOM     19  C   UNL     1     145.674 166.651 188.360  0.00  0.00    -0.012 C 
ATOM     20  C   UNL     1     147.097 167.226 188.135  0.00  0.00    +0.033 C 
ATOM     21  C   UNL     1     147.161 168.595 187.422  0.00  0.00    +0.035 C 
ATOM     22  N   UNL     1     147.341 169.539 188.486  0.00  0.00    -0.308 N 
ATOM     23  C   UNL     1     147.782 168.977 189.658  0.00  0.00    +0.258 C 
ATOM     24  O   UNL     1     148.083 169.642 190.637  0.00  0.00    -0.271 OA
ATOM     25  H   UNL     1     150.122 164.426 194.358  0.00  0.00    +0.030 HD
ATOM     26  H   UNL     1     152.311 165.801 194.819  0.00  0.00    +0.027 HD
ATOM     27  H   UNL     1     151.388 167.218 194.333  0.00  0.00    +0.027 HD
ATOM     28  H   UNL     1     151.990 164.716 192.667  0.00  0.00    +0.027 HD
ATOM     29  H   UNL     1     150.877 165.980 192.165  0.00  0.00    +0.027 HD
ATOM     30  H   UNL     1     152.770 167.671 192.380  0.00  0.00    +0.029 HD
ATOM     31  H   UNL     1     153.862 166.324 192.728  0.00  0.00    +0.029 HD
ATOM     32  H   UNL     1     153.930 167.073 190.302  0.00  0.00    +0.064 HD
ATOM     33  H   UNL     1     151.505 167.682 190.026  0.00  0.00    +0.060 HD
ATOM     34  H   UNL     1     151.407 164.667 189.372  0.00  0.00    +0.069 HD
ATOM     35  H   UNL     1     147.259 165.641 190.523  0.00  0.00    +0.042 HD
ATOM     36  H   UNL     1     148.017 167.961 192.404  0.00  0.00    +0.057 HD
ATOM     37  H   UNL     1     148.267 164.910 192.574  0.00  0.00    +0.057 HD
ATOM     38  H   UNL     1     148.051 165.884 194.933  0.00  0.00    +0.031 HD
ATOM     39  H   UNL     1     148.992 167.282 194.453  0.00  0.00    +0.031 HD
ATOM     40  H   UNL     1     145.657 168.059 191.452  0.00  0.00    +0.065 HD
ATOM     41  H   UNL     1     143.473 168.521 190.375  0.00  0.00    +0.054 HD
ATOM     42  H   UNL     1     143.345 168.243 188.557  0.00  0.00    +0.054 HD
ATOM     43  H   UNL     1     145.805 165.599 188.656  0.00  0.00    +0.035 HD
ATOM     44  H   UNL     1     147.611 166.498 187.497  0.00  0.00    +0.037 HD
ATOM     45  H   UNL     1     146.228 168.856 186.918  0.00  0.00    +0.051 HD
ATOM     46  H   UNL     1     147.247 170.543 188.390  0.00  0.00    +0.149 HD
ENDROOT
BRANCH   1  47
ATOM     47  C   UNL     1     150.203 165.422 196.248  0.00  0.00    -0.062 C 
ATOM     48  H   UNL     1     150.770 166.271 196.647  0.00  0.00    +0.023 HD
ATOM     49  H   UNL     1     149.192 165.479 196.669  0.00  0.00    +0.023 HD
ATOM     50  H   UNL     1     150.671 164.500 196.608  0.00  0.00    +0.023 HD
ENDBRANCH   1  47
BRANCH  19  51
ATOM     51  C   UNL     1     144.852 166.574 187.066  0.00  0.00    -0.058 C 
ATOM     52  H   UNL     1     144.776 165.537 186.722  0.00  0.00    +0.024 HD
ATOM     53  H   UNL     1     145.274 167.168 186.252  0.00  0.00    +0.024 HD
ATOM     54  H   UNL     1     143.831 166.936 187.240  0.00  0.00    +0.024 HD
ENDBRANCH  19  51
BRANCH  21  55
ATOM     55  C   UNL     1     148.328 168.654 186.413  0.00  0.00    -0.009 C 
ATOM     56  H   UNL     1     149.284 168.640 186.952  0.00  0.00    +0.033 HD
ATOM     57  H   UNL     1     148.311 169.595 185.849  0.00  0.00    +0.033 HD
BRANCH  55  58
ATOM     58  C   UNL     1     148.314 167.493 185.444  0.00  0.00    -0.046 A 
ATOM     59  C   UNL     1     149.287 166.488 185.528  0.00  0.00    -0.059 A 
ATOM     60  C   UNL     1     149.288 165.429 184.620  0.00  0.00    -0.062 A 
ATOM     61  C   UNL     1     148.319 165.364 183.621  0.00  0.00    -0.062 A 
ATOM     62  C   UNL     1     147.348 166.359 183.529  0.00  0.00    -0.062 A 
ATOM     63  C   UNL     1     147.344 167.420 184.435  0.00  0.00    -0.059 A 
ATOM     64  H   UNL     1     150.053 166.526 186.300  0.00  0.00    +0.062 HD
ATOM     65  H   UNL     1     150.046 164.653 184.692  0.00  0.00    +0.062 HD
ATOM     66  H   UNL     1     148.320 164.538 182.915  0.00  0.00    +0.062 HD
ATOM     67  H   UNL     1     146.590 166.308 182.750  0.00  0.00    +0.062 HD
ATOM     68  H   UNL     1     146.579 168.188 184.348  0.00  0.00    +0.062 HD
ENDBRANCH  55  58
ENDBRANCH  21  55
BRANCH  16  69
ATOM     69  O   UNL     1     145.023 166.127 191.593  0.00  0.00    -0.387 OA
ATOM     70  H   UNL     1     145.664 165.665 192.156  0.00  0.00    +0.210 HD
ENDBRANCH  16  69
BRANCH   5  71
ATOM     71  O   UNL     1     153.593 165.063 190.431  0.00  0.00    -0.388 OA
ATOM     72  H   UNL     1     153.392 164.546 191.229  0.00  0.00    +0.210 HD
ENDBRANCH   5  71
TORSDOF 6
ENDMDL
MODEL 2
REMARK VINA RESULT:      -6.4      1.093      1.606
REMARK  Name = Cytochalasin B_conf3
REMARK  6 active torsions:
REMARK  status: ('A' for Active; 'I' for Inactive)
REMARK    1  A    between atoms: C_1  and  C_2
REMARK    2  A    between atoms: C_6  and  O_35
REMARK    3  A    between atoms: C_17  and  O_34
REMARK    4  A    between atoms: C_20  and  C_33
REMARK    5  A    between atoms: C_22  and  C_26
REMARK    6  A    between atoms: C_26  and  C_27
REMARK                            x       y       z     vdW  Elec       q    Type
REMARK                         _______ _______ _______ _____ _____    ______ ____
ROOT
ATOM      1  C   UNL     1     150.421 165.384 194.655  0.00  0.00    -0.040 C 
ATOM      2  C   UNL     1     151.694 166.045 194.074  0.00  0.00    -0.050 C 
ATOM      3  C   UNL     1     151.894 165.737 192.594  0.00  0.00    -0.050 C 
ATOM      4  C   UNL     1     153.041 166.551 191.966  0.00  0.00    -0.023 C 
ATOM      5  C   UNL     1     153.135 166.378 190.436  0.00  0.00    +0.074 C 
ATOM      6  C   UNL     1     151.804 166.683 189.808  0.00  0.00    -0.049 C 
ATOM      7  C   UNL     1     150.966 165.755 189.312  0.00  0.00    +0.021 C 
ATOM      8  C   UNL     1     149.526 165.991 189.105  0.00  0.00    +0.333 C 
ATOM      9  O   UNL     1     148.760 165.099 188.774  0.00  0.00    -0.246 OA
ATOM     10  O   UNL     1     149.182 167.260 189.422  0.00  0.00    -0.444 OA
ATOM     11  C   UNL     1     147.787 167.552 189.666  0.00  0.00    +0.202 C 
ATOM     12  C   UNL     1     147.230 166.800 190.914  0.00  0.00    +0.056 C 
ATOM     13  C   UNL     1     148.048 166.960 192.202  0.00  0.00    -0.078 C 
ATOM     14  C   UNL     1     148.518 165.952 192.960  0.00  0.00    -0.087 C 
ATOM     15  C   UNL     1     149.117 166.159 194.333  0.00  0.00    -0.032 C 
ATOM     16  C   UNL     1     145.756 167.232 191.183  0.00  0.00    +0.087 C 
ATOM     17  C   UNL     1     144.946 167.471 189.921  0.00  0.00    -0.045 C 
ATOM     18  C   UNL     1     143.838 168.233 189.958  0.00  0.00    -0.097 C 
ATOM     19  C   UNL     1     145.511 166.819 188.677  0.00  0.00    -0.012 C 
ATOM     20  C   UNL     1     146.925 167.376 188.364  0.00  0.00    +0.033 C 
ATOM     21  C   UNL     1     146.961 168.763 187.685  0.00  0.00    +0.035 C 
ATOM     22  N   UNL     1     147.235 169.674 188.758  0.00  0.00    -0.308 N 
ATOM     23  C   UNL     1     147.749 169.074 189.879  0.00  0.00    +0.258 C 
ATOM     24  O   UNL     1     148.131 169.706 190.851  0.00  0.00    -0.271 OA
ATOM     25  H   UNL     1     150.339 164.358 194.276  0.00  0.00    +0.030 HD
ATOM     26  H   UNL     1     152.581 165.685 194.613  0.00  0.00    +0.027 HD
ATOM     27  H   UNL     1     151.651 167.129 194.233  0.00  0.00    +0.027 HD
ATOM     28  H   UNL     1     152.085 164.665 192.462  0.00  0.00    +0.027 HD
ATOM     29  H   UNL     1     150.962 165.960 192.076  0.00  0.00    +0.027 HD
ATOM     30  H   UNL     1     152.896 167.614 192.197  0.00  0.00    +0.029 HD
ATOM     31  H   UNL     1     153.986 166.240 192.429  0.00  0.00    +0.029 HD
ATOM     32  H   UNL     1     153.893 167.054 190.026  0.00  0.00    +0.064 HD
ATOM     33  H   UNL     1     151.465 167.709 189.943  0.00  0.00    +0.060 HD
ATOM     34  H   UNL     1     151.265 164.716 189.218  0.00  0.00    +0.069 HD
ATOM     35  H   UNL     1     147.230 165.724 190.692  0.00  0.00    +0.042 HD
ATOM     36  H   UNL     1     148.163 167.979 192.574  0.00  0.00    +0.057 HD
ATOM     37  H   UNL     1     148.369 164.921 192.645  0.00  0.00    +0.057 HD
ATOM     38  H   UNL     1     148.341 165.833 195.039  0.00  0.00    +0.031 HD
ATOM     39  H   UNL     1     149.270 167.228 194.528  0.00  0.00    +0.031 HD
ATOM     40  H   UNL     1     145.743 168.141 191.798  0.00  0.00    +0.065 HD
ATOM     41  H   UNL     1     143.496 168.668 190.895  0.00  0.00    +0.054 HD
ATOM     42  H   UNL     1     143.232 168.442 189.084  0.00  0.00    +0.054 HD
ATOM     43  H   UNL     1     145.644 165.757 188.935  0.00  0.00    +0.035 HD
ATOM     44  H   UNL     1     147.378 166.659 187.672  0.00  0.00    +0.037 HD
ATOM     45  H   UNL     1     145.999 169.053 187.257  0.00  0.00    +0.051 HD
ATOM     46  H   UNL     1     147.152 170.683 188.695  0.00  0.00    +0.149 HD
ENDROOT
BRANCH   1  47
ATOM     47  C   UNL     1     150.574 165.300 196.181  0.00  0.00    -0.062 C 
ATOM     48  H   UNL     1     150.545 166.299 196.633  0.00  0.00    +0.023 HD
ATOM     49  H   UNL     1     149.757 164.718 196.624  0.00  0.00    +0.023 HD
ATOM     50  H   UNL     1     151.521 164.827 196.461  0.00  0.00    +0.023 HD
ENDBRANCH   1  47
BRANCH  19  51
ATOM     51  C   UNL     1     144.597 166.791 187.445  0.00  0.00    -0.058 C 
ATOM     52  H   UNL     1     144.696 165.836 186.916  0.00  0.00    +0.024 HD
ATOM     53  H   UNL     1     144.809 167.592 186.733  0.00  0.00    +0.024 HD
ATOM     54  H   UNL     1     143.547 166.890 187.746  0.00  0.00    +0.024 HD
ENDBRANCH  19  51
BRANCH  21  55
ATOM     55  C   UNL     1     148.054 168.831 186.596  0.00  0.00    -0.009 C 
ATOM     56  H   UNL     1     148.580 167.870 186.539  0.00  0.00    +0.033 HD
ATOM     57  H   UNL     1     148.815 169.579 186.851  0.00  0.00    +0.033 HD
BRANCH  55  58
ATOM     58  C   UNL     1     147.488 169.143 185.229  0.00  0.00    -0.046 A 
ATOM     59  C   UNL     1     147.489 170.458 184.744  0.00  0.00    -0.059 A 
ATOM     60  C   UNL     1     146.948 170.750 183.493  0.00  0.00    -0.062 A 
ATOM     61  C   UNL     1     146.400 169.732 182.715  0.00  0.00    -0.062 A 
ATOM     62  C   UNL     1     146.392 168.422 183.188  0.00  0.00    -0.062 A 
ATOM     63  C   UNL     1     146.933 168.127 184.440  0.00  0.00    -0.059 A 
ATOM     64  H   UNL     1     147.911 171.264 185.341  0.00  0.00    +0.062 HD
ATOM     65  H   UNL     1     146.953 171.773 183.124  0.00  0.00    +0.062 HD
ATOM     66  H   UNL     1     145.978 169.961 181.739  0.00  0.00    +0.062 HD
ATOM     67  H   UNL     1     145.965 167.627 182.580  0.00  0.00    +0.062 HD
ATOM     68  H   UNL     1     146.919 167.098 184.794  0.00  0.00    +0.062 HD
ENDBRANCH  55  58
ENDBRANCH  21  55
BRANCH  16  69
ATOM     69  O   UNL     1     145.085 166.217 191.934  0.00  0.00    -0.387 OA
ATOM     70  H   UNL     1     145.668 165.441 191.968  0.00  0.00    +0.210 HD
ENDBRANCH  16  69
BRANCH   5  71
ATOM     71  O   UNL     1     153.529 165.047 190.126  0.00  0.00    -0.388 OA
ATOM     72  H   UNL     1     152.792 164.466 190.375  0.00  0.00    +0.210 HD
ENDBRANCH   5  71
TORSDOF 6
ENDMDL
MODEL 3
REMARK VINA RESULT:      -6.3      2.402      7.040
REMARK  Name = Cytochalasin B_conf3
REMARK  6 active torsions:
REMARK  status: ('A' for Active; 'I' for Inactive)
REMARK    1  A    between atoms: C_1  and  C_2
REMARK    2  A    between atoms: C_6  and  O_35
REMARK    3  A    between atoms: C_17  and  O_34
REMARK    4  A    between atoms: C_20  and  C_33
REMARK    5  A    between atoms: C_22  and  C_26
REMARK    6  A    between atoms: C_26  and  C_27
REMARK                            x       y       z     vdW  Elec       q    Type
REMARK                         _______ _______ _______ _____ _____    ______ ____
ROOT
ATOM      1  C   UNL     1     144.404 168.236 185.928  0.00  0.00    -0.040 C 
ATOM      2  C   UNL     1     144.214 166.721 186.181  0.00  0.00    -0.050 C 
ATOM      3  C   UNL     1     145.532 165.998 186.436  0.00  0.00    -0.050 C 
ATOM      4  C   UNL     1     145.333 164.538 186.885  0.00  0.00    -0.023 C 
ATOM      5  C   UNL     1     146.648 163.854 187.314  0.00  0.00    +0.074 C 
ATOM      6  C   UNL     1     147.334 164.687 188.360  0.00  0.00    -0.049 C 
ATOM      7  C   UNL     1     148.433 165.432 188.139  0.00  0.00    +0.021 C 
ATOM      8  C   UNL     1     148.840 166.553 189.005  0.00  0.00    +0.333 C 
ATOM      9  O   UNL     1     149.767 167.296 188.717  0.00  0.00    -0.246 OA
ATOM     10  O   UNL     1     148.006 166.691 190.061  0.00  0.00    -0.444 OA
ATOM     11  C   UNL     1     148.005 167.949 190.774  0.00  0.00    +0.202 C 
ATOM     12  C   UNL     1     147.518 169.137 189.887  0.00  0.00    +0.056 C 
ATOM     13  C   UNL     1     146.179 168.922 189.171  0.00  0.00    -0.078 C 
ATOM     14  C   UNL     1     145.968 169.063 187.848  0.00  0.00    -0.087 C 
ATOM     15  C   UNL     1     144.590 169.064 187.227  0.00  0.00    -0.032 C 
ATOM     16  C   UNL     1     147.443 170.441 190.738  0.00  0.00    +0.087 C 
ATOM     17  C   UNL     1     148.551 170.567 191.769  0.00  0.00    -0.045 C 
ATOM     18  C   UNL     1     148.401 171.377 192.833  0.00  0.00    -0.097 C 
ATOM     19  C   UNL     1     149.764 169.703 191.497  0.00  0.00    -0.012 C 
ATOM     20  C   UNL     1     149.374 168.201 191.501  0.00  0.00    +0.033 C 
ATOM     21  C   UNL     1     149.197 167.560 192.895  0.00  0.00    +0.035 C 
ATOM     22  N   UNL     1     147.778 167.556 193.104  0.00  0.00    -0.308 N 
ATOM     23  C   UNL     1     147.047 167.715 191.954  0.00  0.00    +0.258 C 
ATOM     24  O   UNL     1     145.829 167.639 191.929  0.00  0.00    -0.271 OA
ATOM     25  H   UNL     1     145.268 168.389 185.271  0.00  0.00    +0.030 HD
ATOM     26  H   UNL     1     143.740 166.253 185.308  0.00  0.00    +0.027 HD
ATOM     27  H   UNL     1     143.530 166.572 187.025  0.00  0.00    +0.027 HD
ATOM     28  H   UNL     1     146.150 166.025 185.531  0.00  0.00    +0.027 HD
ATOM     29  H   UNL     1     146.072 166.546 187.207  0.00  0.00    +0.027 HD
ATOM     30  H   UNL     1     144.626 164.513 187.725  0.00  0.00    +0.029 HD
ATOM     31  H   UNL     1     144.880 163.976 186.059  0.00  0.00    +0.029 HD
ATOM     32  H   UNL     1     146.440 162.860 187.723  0.00  0.00    +0.064 HD
ATOM     33  H   UNL     1     146.775 164.801 189.287  0.00  0.00    +0.060 HD
ATOM     34  H   UNL     1     148.976 165.373 187.201  0.00  0.00    +0.069 HD
ATOM     35  H   UNL     1     148.260 169.295 189.093  0.00  0.00    +0.042 HD
ATOM     36  H   UNL     1     145.316 168.738 189.812  0.00  0.00    +0.057 HD
ATOM     37  H   UNL     1     146.800 169.302 187.189  0.00  0.00    +0.057 HD
ATOM     38  H   UNL     1     144.378 170.116 186.995  0.00  0.00    +0.031 HD
ATOM     39  H   UNL     1     143.835 168.761 187.963  0.00  0.00    +0.031 HD
ATOM     40  H   UNL     1     146.471 170.498 191.244  0.00  0.00    +0.065 HD
ATOM     41  H   UNL     1     147.496 171.967 192.956  0.00  0.00    +0.054 HD
ATOM     42  H   UNL     1     149.158 171.493 193.600  0.00  0.00    +0.054 HD
ATOM     43  H   UNL     1     150.074 169.943 190.469  0.00  0.00    +0.035 HD
ATOM     44  H   UNL     1     150.200 167.681 191.002  0.00  0.00    +0.037 HD
ATOM     45  H   UNL     1     149.636 168.156 193.697  0.00  0.00    +0.051 HD
ATOM     46  H   UNL     1     147.325 167.366 193.990  0.00  0.00    +0.149 HD
ENDROOT
BRANCH   1  47
ATOM     47  C   UNL     1     143.164 168.761 185.189  0.00  0.00    -0.062 C 
ATOM     48  H   UNL     1     142.958 168.162 184.294  0.00  0.00    +0.023 HD
ATOM     49  H   UNL     1     142.275 168.707 185.829  0.00  0.00    +0.023 HD
ATOM     50  H   UNL     1     143.298 169.803 184.878  0.00  0.00    +0.023 HD
ENDBRANCH   1  47
BRANCH  19  51
ATOM     51  C   UNL     1     151.013 169.995 192.340  0.00  0.00    -0.058 C 
ATOM     52  H   UNL     1     151.009 171.036 192.681  0.00  0.00    +0.024 HD
ATOM     53  H   UNL     1     151.947 169.822 191.799  0.00  0.00    +0.024 HD
ATOM     54  H   UNL     1     151.030 169.359 193.233  0.00  0.00    +0.024 HD
ENDBRANCH  19  51
BRANCH  21  55
ATOM     55  C   UNL     1     149.776 166.129 192.938  0.00  0.00    -0.009 C 
ATOM     56  H   UNL     1     149.176 165.467 192.300  0.00  0.00    +0.033 HD
ATOM     57  H   UNL     1     149.713 165.711 193.951  0.00  0.00    +0.033 HD
BRANCH  55  58
ATOM     58  C   UNL     1     151.210 166.072 192.464  0.00  0.00    -0.046 A 
ATOM     59  C   UNL     1     152.235 166.638 193.234  0.00  0.00    -0.059 A 
ATOM     60  C   UNL     1     153.556 166.606 192.787  0.00  0.00    -0.062 A 
ATOM     61  C   UNL     1     153.864 166.008 191.566  0.00  0.00    -0.062 A 
ATOM     62  C   UNL     1     152.853 165.443 190.792  0.00  0.00    -0.062 A 
ATOM     63  C   UNL     1     151.531 165.475 191.237  0.00  0.00    -0.059 A 
ATOM     64  H   UNL     1     152.009 167.112 194.188  0.00  0.00    +0.062 HD
ATOM     65  H   UNL     1     154.344 167.048 193.390  0.00  0.00    +0.062 HD
ATOM     66  H   UNL     1     154.894 165.983 191.219  0.00  0.00    +0.062 HD
ATOM     67  H   UNL     1     153.094 164.976 189.840  0.00  0.00    +0.062 HD
ATOM     68  H   UNL     1     150.754 165.029 190.620  0.00  0.00    +0.062 HD
ENDBRANCH  55  58
ENDBRANCH  21  55
BRANCH  16  69
ATOM     69  O   UNL     1     147.528 171.582 189.880  0.00  0.00    -0.387 OA
ATOM     70  H   UNL     1     146.623 171.881 189.695  0.00  0.00    +0.210 HD
ENDBRANCH  16  69
BRANCH   5  71
ATOM     71  O   UNL     1     147.494 163.690 186.184  0.00  0.00    -0.388 OA
ATOM     72  H   UNL     1     147.282 162.828 185.790  0.00  0.00    +0.210 HD
ENDBRANCH   5  71
TORSDOF 6
ENDMDL
MODEL 4
REMARK VINA RESULT:      -6.1      2.471      5.932
REMARK  Name = Cytochalasin B_conf3
REMARK  6 active torsions:
REMARK  status: ('A' for Active; 'I' for Inactive)
REMARK    1  A    between atoms: C_1  and  C_2
REMARK    2  A    between atoms: C_6  and  O_35
REMARK    3  A    between atoms: C_17  and  O_34
REMARK    4  A    between atoms: C_20  and  C_33
REMARK    5  A    between atoms: C_22  and  C_26
REMARK    6  A    between atoms: C_26  and  C_27
REMARK                            x       y       z     vdW  Elec       q    Type
REMARK                         _______ _______ _______ _____ _____    ______ ____
ROOT
ATOM      1  C   UNL     1     154.255 166.861 187.477  0.00  0.00    -0.040 C 
ATOM      2  C   UNL     1     154.471 165.875 188.650  0.00  0.00    -0.050 C 
ATOM      3  C   UNL     1     153.706 166.280 189.906  0.00  0.00    -0.050 C 
ATOM      4  C   UNL     1     153.756 165.202 191.005  0.00  0.00    -0.023 C 
ATOM      5  C   UNL     1     152.843 165.524 192.207  0.00  0.00    +0.074 C 
ATOM      6  C   UNL     1     151.444 165.788 191.725  0.00  0.00    -0.049 C 
ATOM      7  C   UNL     1     150.877 167.006 191.666  0.00  0.00    +0.021 C 
ATOM      8  C   UNL     1     149.714 167.319 190.816  0.00  0.00    +0.333 C 
ATOM      9  O   UNL     1     149.294 168.458 190.680  0.00  0.00    -0.246 OA
ATOM     10  O   UNL     1     149.272 166.222 190.160  0.00  0.00    -0.444 OA
ATOM     11  C   UNL     1     148.424 166.411 189.003  0.00  0.00    +0.202 C 
ATOM     12  C   UNL     1     149.159 167.144 187.839  0.00  0.00    +0.056 C 
ATOM     13  C   UNL     1     150.509 166.545 187.426  0.00  0.00    -0.078 C 
ATOM     14  C   UNL     1     151.672 167.218 187.346  0.00  0.00    -0.087 C 
ATOM     15  C   UNL     1     152.920 166.641 186.718  0.00  0.00    -0.032 C 
ATOM     16  C   UNL     1     148.229 167.226 186.590  0.00  0.00    +0.087 C 
ATOM     17  C   UNL     1     146.765 167.450 186.928  0.00  0.00    -0.045 C 
ATOM     18  C   UNL     1     145.806 167.127 186.041  0.00  0.00    -0.097 C 
ATOM     19  C   UNL     1     146.517 168.015 188.310  0.00  0.00    -0.012 C 
ATOM     20  C   UNL     1     147.041 167.042 189.398  0.00  0.00    +0.033 C 
ATOM     21  C   UNL     1     146.134 165.829 189.703  0.00  0.00    +0.035 C 
ATOM     22  N   UNL     1     146.728 164.751 188.967  0.00  0.00    -0.308 N 
ATOM     23  C   UNL     1     148.025 164.984 188.589  0.00  0.00    +0.258 C 
ATOM     24  O   UNL     1     148.717 164.140 188.042  0.00  0.00    -0.271 OA
ATOM     25  H   UNL     1     154.295 167.889 187.854  0.00  0.00    +0.030 HD
ATOM     26  H   UNL     1     155.537 165.829 188.907  0.00  0.00    +0.027 HD
ATOM     27  H   UNL     1     154.181 164.864 188.339  0.00  0.00    +0.027 HD
ATOM     28  H   UNL     1     154.108 167.223 190.295  0.00  0.00    +0.027 HD
ATOM     29  H   UNL     1     152.671 166.466 189.624  0.00  0.00    +0.027 HD
ATOM     30  H   UNL     1     153.456 164.237 190.577  0.00  0.00    +0.029 HD
ATOM     31  H   UNL     1     154.793 165.099 191.350  0.00  0.00    +0.029 HD
ATOM     32  H   UNL     1     152.832 164.683 192.908  0.00  0.00    +0.064 HD
ATOM     33  H   UNL     1     150.964 164.938 191.242  0.00  0.00    +0.060 HD
ATOM     34  H   UNL     1     151.363 167.877 192.094  0.00  0.00    +0.069 HD
ATOM     35  H   UNL     1     149.375 168.170 188.165  0.00  0.00    +0.042 HD
ATOM     36  H   UNL     1     150.488 165.511 187.077  0.00  0.00    +0.057 HD
ATOM     37  H   UNL     1     151.712 168.267 187.634  0.00  0.00    +0.057 HD
ATOM     38  H   UNL     1     153.000 167.125 185.736  0.00  0.00    +0.031 HD
ATOM     39  H   UNL     1     152.789 165.570 186.515  0.00  0.00    +0.031 HD
ATOM     40  H   UNL     1     148.326 166.310 185.995  0.00  0.00    +0.065 HD
ATOM     41  H   UNL     1     146.067 166.724 185.064  0.00  0.00    +0.054 HD
ATOM     42  H   UNL     1     144.748 167.258 186.238  0.00  0.00    +0.054 HD
ATOM     43  H   UNL     1     147.140 168.921 188.375  0.00  0.00    +0.035 HD
ATOM     44  H   UNL     1     147.114 167.637 190.315  0.00  0.00    +0.037 HD
ATOM     45  H   UNL     1     145.117 165.952 189.325  0.00  0.00    +0.051 HD
ATOM     46  H   UNL     1     146.288 163.852 188.802  0.00  0.00    +0.149 HD
ENDROOT
BRANCH   1  47
ATOM     47  C   UNL     1     155.414 166.690 186.483  0.00  0.00    -0.062 C 
ATOM     48  H   UNL     1     155.215 167.235 185.553  0.00  0.00    +0.023 HD
ATOM     49  H   UNL     1     156.347 167.086 186.900  0.00  0.00    +0.023 HD
ATOM     50  H   UNL     1     155.572 165.635 186.234  0.00  0.00    +0.023 HD
ENDBRANCH   1  47
BRANCH  19  51
ATOM     51  C   UNL     1     145.096 168.519 188.597  0.00  0.00    -0.058 C 
ATOM     52  H   UNL     1     144.593 167.859 189.311  0.00  0.00    +0.024 HD
ATOM     53  H   UNL     1     144.473 168.582 187.701  0.00  0.00    +0.024 HD
ATOM     54  H   UNL     1     145.129 169.520 189.044  0.00  0.00    +0.024 HD
ENDBRANCH  19  51
BRANCH  21  55
ATOM     55  C   UNL     1     146.090 165.521 191.216  0.00  0.00    -0.009 C 
ATOM     56  H   UNL     1     146.842 166.126 191.739  0.00  0.00    +0.033 HD
ATOM     57  H   UNL     1     146.355 164.474 191.410  0.00  0.00    +0.033 HD
BRANCH  55  58
ATOM     58  C   UNL     1     144.739 165.815 191.826  0.00  0.00    -0.046 A 
ATOM     59  C   UNL     1     144.635 166.182 193.174  0.00  0.00    -0.059 A 
ATOM     60  C   UNL     1     143.386 166.431 193.745  0.00  0.00    -0.062 A 
ATOM     61  C   UNL     1     142.231 166.315 192.973  0.00  0.00    -0.062 A 
ATOM     62  C   UNL     1     142.324 165.948 191.632  0.00  0.00    -0.062 A 
ATOM     63  C   UNL     1     143.571 165.698 191.060  0.00  0.00    -0.059 A 
ATOM     64  H   UNL     1     145.527 166.274 193.791  0.00  0.00    +0.062 HD
ATOM     65  H   UNL     1     143.314 166.716 194.791  0.00  0.00    +0.062 HD
ATOM     66  H   UNL     1     141.259 166.510 193.418  0.00  0.00    +0.062 HD
ATOM     67  H   UNL     1     141.422 165.858 191.031  0.00  0.00    +0.062 HD
ATOM     68  H   UNL     1     143.625 165.413 190.011  0.00  0.00    +0.062 HD
ENDBRANCH  55  58
ENDBRANCH  21  55
BRANCH  16  69
ATOM     69  O   UNL     1     148.643 168.308 185.751  0.00  0.00    -0.387 OA
ATOM     70  H   UNL     1     149.134 168.938 186.302  0.00  0.00    +0.210 HD
ENDBRANCH  16  69
BRANCH   5  71
ATOM     71  O   UNL     1     153.345 166.659 192.900  0.00  0.00    -0.388 OA
ATOM     72  H   UNL     1     154.116 166.364 193.412  0.00  0.00    +0.210 HD
ENDBRANCH   5  71
TORSDOF 6
ENDMDL
MODEL 5
REMARK VINA RESULT:      -6.1      3.462      6.132
REMARK  Name = Cytochalasin B_conf3
REMARK  6 active torsions:
REMARK  status: ('A' for Active; 'I' for Inactive)
REMARK    1  A    between atoms: C_1  and  C_2
REMARK    2  A    between atoms: C_6  and  O_35
REMARK    3  A    between atoms: C_17  and  O_34
REMARK    4  A    between atoms: C_20  and  C_33
REMARK    5  A    between atoms: C_22  and  C_26
REMARK    6  A    between atoms: C_26  and  C_27
REMARK                            x       y       z     vdW  Elec       q    Type
REMARK                         _______ _______ _______ _____ _____    ______ ____
ROOT
ATOM      1  C   UNL     1     151.305 168.030 191.685  0.00  0.00    -0.040 C 
ATOM      2  C   UNL     1     150.940 169.283 192.514  0.00  0.00    -0.050 C 
ATOM      3  C   UNL     1     150.023 170.241 191.759  0.00  0.00    -0.050 C 
ATOM      4  C   UNL     1     149.497 171.384 192.647  0.00  0.00    -0.023 C 
ATOM      5  C   UNL     1     148.434 172.254 191.943  0.00  0.00    +0.074 C 
ATOM      6  C   UNL     1     147.330 171.380 191.418  0.00  0.00    -0.049 C 
ATOM      7  C   UNL     1     147.151 171.076 190.120  0.00  0.00    +0.021 C 
ATOM      8  C   UNL     1     146.373 169.912 189.659  0.00  0.00    +0.333 C 
ATOM      9  O   UNL     1     146.328 169.582 188.483  0.00  0.00    -0.246 OA
ATOM     10  O   UNL     1     145.828 169.239 190.697  0.00  0.00    -0.444 OA
ATOM     11  C   UNL     1     145.385 167.880 190.477  0.00  0.00    +0.202 C 
ATOM     12  C   UNL     1     146.562 166.920 190.119  0.00  0.00    +0.056 C 
ATOM     13  C   UNL     1     147.755 166.949 191.083  0.00  0.00    -0.078 C 
ATOM     14  C   UNL     1     149.039 167.151 190.731  0.00  0.00    -0.087 C 
ATOM     15  C   UNL     1     150.198 166.943 191.679  0.00  0.00    -0.032 C 
ATOM     16  C   UNL     1     146.037 165.457 189.993  0.00  0.00    +0.087 C 
ATOM     17  C   UNL     1     144.654 165.352 189.374  0.00  0.00    -0.045 C 
ATOM     18  C   UNL     1     143.899 164.257 189.577  0.00  0.00    -0.097 C 
ATOM     19  C   UNL     1     144.229 166.564 188.572  0.00  0.00    -0.012 C 
ATOM     20  C   UNL     1     144.174 167.823 189.477  0.00  0.00    +0.033 C 
ATOM     21  C   UNL     1     142.923 167.947 190.376  0.00  0.00    +0.035 C 
ATOM     22  N   UNL     1     143.366 167.487 191.661  0.00  0.00    -0.308 N 
ATOM     23  C   UNL     1     144.729 167.474 191.807  0.00  0.00    +0.258 C 
ATOM     24  O   UNL     1     145.278 167.206 192.864  0.00  0.00    -0.271 OA
ATOM     25  H   UNL     1     151.528 168.328 190.653  0.00  0.00    +0.030 HD
ATOM     26  H   UNL     1     151.851 169.834 192.781  0.00  0.00    +0.027 HD
ATOM     27  H   UNL     1     150.472 168.977 193.458  0.00  0.00    +0.027 HD
ATOM     28  H   UNL     1     150.556 170.658 190.896  0.00  0.00    +0.027 HD
ATOM     29  H   UNL     1     149.185 169.667 191.369  0.00  0.00    +0.027 HD
ATOM     30  H   UNL     1     149.062 170.960 193.561  0.00  0.00    +0.029 HD
ATOM     31  H   UNL     1     150.344 172.013 192.949  0.00  0.00    +0.029 HD
ATOM     32  H   UNL     1     148.016 172.982 192.646  0.00  0.00    +0.064 HD
ATOM     33  H   UNL     1     146.774 170.843 192.186  0.00  0.00    +0.060 HD
ATOM     34  H   UNL     1     147.732 171.560 189.341  0.00  0.00    +0.069 HD
ATOM     35  H   UNL     1     146.960 167.220 189.141  0.00  0.00    +0.042 HD
ATOM     36  H   UNL     1     147.541 166.683 192.119  0.00  0.00    +0.057 HD
ATOM     37  H   UNL     1     149.290 167.362 189.694  0.00  0.00    +0.057 HD
ATOM     38  H   UNL     1     150.653 165.992 191.376  0.00  0.00    +0.031 HD
ATOM     39  H   UNL     1     149.834 166.789 192.703  0.00  0.00    +0.031 HD
ATOM     40  H   UNL     1     146.026 164.981 190.982  0.00  0.00    +0.065 HD
ATOM     41  H   UNL     1     144.278 163.425 190.168  0.00  0.00    +0.054 HD
ATOM     42  H   UNL     1     142.904 164.138 189.166  0.00  0.00    +0.054 HD
ATOM     43  H   UNL     1     145.038 166.736 187.846  0.00  0.00    +0.035 HD
ATOM     44  H   UNL     1     144.173 168.679 188.793  0.00  0.00    +0.037 HD
ATOM     45  H   UNL     1     142.109 167.290 190.064  0.00  0.00    +0.051 HD
ATOM     46  H   UNL     1     142.753 167.270 192.438  0.00  0.00    +0.149 HD
ENDROOT
BRANCH   1  47
ATOM     47  C   UNL     1     152.585 167.418 192.273  0.00  0.00    -0.062 C 
ATOM     48  H   UNL     1     153.335 168.192 192.469  0.00  0.00    +0.023 HD
ATOM     49  H   UNL     1     152.377 166.917 193.226  0.00  0.00    +0.023 HD
ATOM     50  H   UNL     1     153.025 166.683 191.590  0.00  0.00    +0.023 HD
ENDBRANCH   1  47
BRANCH  19  51
ATOM     51  C   UNL     1     142.976 166.402 187.702  0.00  0.00    -0.058 C 
ATOM     52  H   UNL     1     143.154 165.667 186.909  0.00  0.00    +0.024 HD
ATOM     53  H   UNL     1     142.656 167.335 187.230  0.00  0.00    +0.024 HD
ATOM     54  H   UNL     1     142.136 166.036 188.305  0.00  0.00    +0.024 HD
ENDBRANCH  19  51
BRANCH  21  55
ATOM     55  C   UNL     1     142.416 169.404 190.443  0.00  0.00    -0.009 C 
ATOM     56  H   UNL     1     143.068 170.051 189.841  0.00  0.00    +0.033 HD
ATOM     57  H   UNL     1     142.469 169.790 191.469  0.00  0.00    +0.033 HD
BRANCH  55  58
ATOM     58  C   UNL     1     141.002 169.547 189.929  0.00  0.00    -0.046 A 
ATOM     59  C   UNL     1     140.693 169.220 188.601  0.00  0.00    -0.059 A 
ATOM     60  C   UNL     1     139.393 169.374 188.120  0.00  0.00    -0.062 A 
ATOM     61  C   UNL     1     138.391 169.856 188.959  0.00  0.00    -0.062 A 
ATOM     62  C   UNL     1     138.688 170.186 190.280  0.00  0.00    -0.062 A 
ATOM     63  C   UNL     1     139.988 170.034 190.764  0.00  0.00    -0.059 A 
ATOM     64  H   UNL     1     141.466 168.845 187.933  0.00  0.00    +0.062 HD
ATOM     65  H   UNL     1     139.163 169.117 187.089  0.00  0.00    +0.062 HD
ATOM     66  H   UNL     1     137.378 169.975 188.583  0.00  0.00    +0.062 HD
ATOM     67  H   UNL     1     137.905 170.562 190.935  0.00  0.00    +0.062 HD
ATOM     68  H   UNL     1     140.201 170.296 191.798  0.00  0.00    +0.062 HD
ENDBRANCH  55  58
ENDBRANCH  21  55
BRANCH  16  69
ATOM     69  O   UNL     1     146.928 164.694 189.177  0.00  0.00    -0.387 OA
ATOM     70  H   UNL     1     147.539 165.313 188.747  0.00  0.00    +0.210 HD
ENDBRANCH  16  69
BRANCH   5  71
ATOM     71  O   UNL     1     149.035 172.977 190.876  0.00  0.00    -0.388 OA
ATOM     72  H   UNL     1     148.381 173.624 190.565  0.00  0.00    +0.210 HD
ENDBRANCH   5  71
TORSDOF 6
ENDMDL
MODEL 6
REMARK VINA RESULT:      -6.0      4.730      8.114
REMARK  Name = Cytochalasin B_conf3
REMARK  6 active torsions:
REMARK  status: ('A' for Active; 'I' for Inactive)
REMARK    1  A    between atoms: C_1  and  C_2
REMARK    2  A    between atoms: C_6  and  O_35
REMARK    3  A    between atoms: C_17  and  O_34
REMARK    4  A    between atoms: C_20  and  C_33
REMARK    5  A    between atoms: C_22  and  C_26
REMARK    6  A    between atoms: C_26  and  C_27
REMARK                            x       y       z     vdW  Elec       q    Type
REMARK                         _______ _______ _______ _____ _____    ______ ____
ROOT
ATOM      1  C   UNL     1     151.286 166.593 192.574  0.00  0.00    -0.040 C 
ATOM      2  C   UNL     1     150.098 166.198 191.667  0.00  0.00    -0.050 C 
ATOM      3  C   UNL     1     150.246 166.722 190.242  0.00  0.00    -0.050 C 
ATOM      4  C   UNL     1     149.172 166.164 189.288  0.00  0.00    -0.023 C 
ATOM      5  C   UNL     1     149.418 166.547 187.814  0.00  0.00    +0.074 C 
ATOM      6  C   UNL     1     150.809 166.145 187.410  0.00  0.00    -0.049 C 
ATOM      7  C   UNL     1     151.829 167.004 187.234  0.00  0.00    +0.021 C 
ATOM      8  C   UNL     1     153.246 166.600 187.270  0.00  0.00    +0.333 C 
ATOM      9  O   UNL     1     154.157 167.413 187.235  0.00  0.00    -0.246 OA
ATOM     10  O   UNL     1     153.375 165.265 187.445  0.00  0.00    -0.444 OA
ATOM     11  C   UNL     1     154.648 164.753 187.901  0.00  0.00    +0.202 C 
ATOM     12  C   UNL     1     155.012 165.250 189.334  0.00  0.00    +0.056 C 
ATOM     13  C   UNL     1     153.931 165.038 190.402  0.00  0.00    -0.078 C 
ATOM     14  C   UNL     1     153.427 165.994 191.205  0.00  0.00    -0.087 C 
ATOM     15  C   UNL     1     152.536 165.694 192.389  0.00  0.00    -0.032 C 
ATOM     16  C   UNL     1     156.341 164.586 189.807  0.00  0.00    +0.087 C 
ATOM     17  C   UNL     1     157.364 164.404 188.700  0.00  0.00    -0.045 C 
ATOM     18  C   UNL     1     158.350 163.497 188.828  0.00  0.00    -0.097 C 
ATOM     19  C   UNL     1     157.146 165.286 187.490  0.00  0.00    -0.012 C 
ATOM     20  C   UNL     1     155.776 164.976 186.831  0.00  0.00    +0.033 C 
ATOM     21  C   UNL     1     155.730 163.709 185.948  0.00  0.00    +0.035 C 
ATOM     22  N   UNL     1     155.140 162.712 186.794  0.00  0.00    -0.308 N 
ATOM     23  C   UNL     1     154.473 163.226 187.877  0.00  0.00    +0.258 C 
ATOM     24  O   UNL     1     153.830 162.531 188.648  0.00  0.00    -0.271 OA
ATOM     25  H   UNL     1     151.558 167.638 192.383  0.00  0.00    +0.030 HD
ATOM     26  H   UNL     1     149.164 166.604 192.076  0.00  0.00    +0.027 HD
ATOM     27  H   UNL     1     149.988 165.107 191.659  0.00  0.00    +0.027 HD
ATOM     28  H   UNL     1     150.205 167.817 190.245  0.00  0.00    +0.027 HD
ATOM     29  H   UNL     1     151.235 166.441 189.882  0.00  0.00    +0.027 HD
ATOM     30  H   UNL     1     149.148 165.070 189.374  0.00  0.00    +0.029 HD
ATOM     31  H   UNL     1     148.192 166.539 189.606  0.00  0.00    +0.029 HD
ATOM     32  H   UNL     1     148.693 166.043 187.167  0.00  0.00    +0.064 HD
ATOM     33  H   UNL     1     150.998 165.073 187.445  0.00  0.00    +0.060 HD
ATOM     34  H   UNL     1     151.672 168.078 187.248  0.00  0.00    +0.069 HD
ATOM     35  H   UNL     1     155.176 166.335 189.287  0.00  0.00    +0.042 HD
ATOM     36  H   UNL     1     153.630 164.005 190.581  0.00  0.00    +0.057 HD
ATOM     37  H   UNL     1     153.750 167.026 191.088  0.00  0.00    +0.057 HD
ATOM     38  H   UNL     1     153.179 165.813 193.271  0.00  0.00    +0.031 HD
ATOM     39  H   UNL     1     152.229 164.640 192.382  0.00  0.00    +0.031 HD
ATOM     40  H   UNL     1     156.126 163.612 190.264  0.00  0.00    +0.065 HD
ATOM     41  H   UNL     1     158.440 162.900 189.734  0.00  0.00    +0.054 HD
ATOM     42  H   UNL     1     159.098 163.323 188.063  0.00  0.00    +0.054 HD
ATOM     43  H   UNL     1     157.080 166.313 187.880  0.00  0.00    +0.035 HD
ATOM     44  H   UNL     1     155.558 165.834 186.185  0.00  0.00    +0.037 HD
ATOM     45  H   UNL     1     156.722 163.347 185.671  0.00  0.00    +0.051 HD
ATOM     46  H   UNL     1     155.123 161.719 186.591  0.00  0.00    +0.149 HD
ENDROOT
BRANCH   1  47
ATOM     47  C   UNL     1     150.829 166.497 194.038  0.00  0.00    -0.062 C 
ATOM     48  H   UNL     1     151.296 165.640 194.538  0.00  0.00    +0.023 HD
ATOM     49  H   UNL     1     151.115 167.396 194.596  0.00  0.00    +0.023 HD
ATOM     50  H   UNL     1     149.742 166.382 194.108  0.00  0.00    +0.023 HD
ENDBRANCH   1  47
BRANCH  19  51
ATOM     51  C   UNL     1     158.294 165.348 186.473  0.00  0.00    -0.058 C 
ATOM     52  H   UNL     1     158.935 164.464 186.566  0.00  0.00    +0.024 HD
ATOM     53  H   UNL     1     158.925 166.233 186.589  0.00  0.00    +0.024 HD
ATOM     54  H   UNL     1     157.899 165.360 185.450  0.00  0.00    +0.024 HD
ENDBRANCH  19  51
BRANCH  21  55
ATOM     55  C   UNL     1     154.887 163.936 184.675  0.00  0.00    -0.009 C 
ATOM     56  H   UNL     1     153.876 164.261 184.952  0.00  0.00    +0.033 HD
ATOM     57  H   UNL     1     154.762 163.000 184.115  0.00  0.00    +0.033 HD
BRANCH  55  58
ATOM     58  C   UNL     1     155.488 164.983 183.764  0.00  0.00    -0.046 A 
ATOM     59  C   UNL     1     156.724 164.759 183.144  0.00  0.00    -0.059 A 
ATOM     60  C   UNL     1     157.290 165.734 182.322  0.00  0.00    -0.062 A 
ATOM     61  C   UNL     1     156.625 166.941 182.112  0.00  0.00    -0.062 A 
ATOM     62  C   UNL     1     155.396 167.174 182.725  0.00  0.00    -0.062 A 
ATOM     63  C   UNL     1     154.829 166.201 183.549  0.00  0.00    -0.059 A 
ATOM     64  H   UNL     1     157.257 163.823 183.301  0.00  0.00    +0.062 HD
ATOM     65  H   UNL     1     158.249 165.551 181.845  0.00  0.00    +0.062 HD
ATOM     66  H   UNL     1     157.066 167.699 181.471  0.00  0.00    +0.062 HD
ATOM     67  H   UNL     1     154.877 168.116 182.561  0.00  0.00    +0.062 HD
ATOM     68  H   UNL     1     153.868 166.400 184.019  0.00  0.00    +0.062 HD
ENDBRANCH  55  58
ENDBRANCH  21  55
BRANCH  16  69
ATOM     69  O   UNL     1     156.948 165.391 190.821  0.00  0.00    -0.387 OA
ATOM     70  H   UNL     1     157.805 165.697 190.482  0.00  0.00    +0.210 HD
ENDBRANCH  16  69
BRANCH   5  71
ATOM     71  O   UNL     1     149.245 167.948 187.647  0.00  0.00    -0.388 OA
ATOM     72  H   UNL     1     149.301 168.132 186.695  0.00  0.00    +0.210 HD
ENDBRANCH   5  71
TORSDOF 6
ENDMDL
MODEL 7
REMARK VINA RESULT:      -5.9      3.299      8.493
REMARK  Name = Cytochalasin B_conf3
REMARK  6 active torsions:
REMARK  status: ('A' for Active; 'I' for Inactive)
REMARK    1  A    between atoms: C_1  and  C_2
REMARK    2  A    between atoms: C_6  and  O_35
REMARK    3  A    between atoms: C_17  and  O_34
REMARK    4  A    between atoms: C_20  and  C_33
REMARK    5  A    between atoms: C_22  and  C_26
REMARK    6  A    between atoms: C_26  and  C_27
REMARK                            x       y       z     vdW  Elec       q    Type
REMARK                         _______ _______ _______ _____ _____    ______ ____
ROOT
ATOM      1  C   UNL     1     140.802 165.251 187.136  0.00  0.00    -0.040 C 
ATOM      2  C   UNL     1     140.366 166.667 186.691  0.00  0.00    -0.050 C 
ATOM      3  C   UNL     1     140.539 167.709 187.791  0.00  0.00    -0.050 C 
ATOM      4  C   UNL     1     140.300 169.146 187.293  0.00  0.00    -0.023 C 
ATOM      5  C   UNL     1     140.643 170.216 188.350  0.00  0.00    +0.074 C 
ATOM      6  C   UNL     1     142.046 170.007 188.846  0.00  0.00    -0.049 C 
ATOM      7  C   UNL     1     142.360 169.500 190.052  0.00  0.00    +0.021 C 
ATOM      8  C   UNL     1     143.670 168.901 190.365  0.00  0.00    +0.333 C 
ATOM      9  O   UNL     1     143.891 168.333 191.423  0.00  0.00    -0.246 OA
ATOM     10  O   UNL     1     144.514 168.982 189.312  0.00  0.00    -0.444 OA
ATOM     11  C   UNL     1     145.670 168.112 189.291  0.00  0.00    +0.202 C 
ATOM     12  C   UNL     1     145.279 166.604 189.210  0.00  0.00    +0.056 C 
ATOM     13  C   UNL     1     144.304 166.233 188.085  0.00  0.00    -0.078 C 
ATOM     14  C   UNL     1     143.144 165.568 188.244  0.00  0.00    -0.087 C 
ATOM     15  C   UNL     1     142.336 165.028 187.087  0.00  0.00    -0.032 C 
ATOM     16  C   UNL     1     146.563 165.727 189.089  0.00  0.00    +0.087 C 
ATOM     17  C   UNL     1     147.739 166.245 189.899  0.00  0.00    -0.045 C 
ATOM     18  C   UNL     1     148.995 165.876 189.587  0.00  0.00    -0.097 C 
ATOM     19  C   UNL     1     147.364 167.194 191.017  0.00  0.00    -0.012 C 
ATOM     20  C   UNL     1     146.675 168.462 190.446  0.00  0.00    +0.033 C 
ATOM     21  C   UNL     1     147.621 169.517 189.831  0.00  0.00    +0.035 C 
ATOM     22  N   UNL     1     147.543 169.280 188.418  0.00  0.00    -0.308 N 
ATOM     23  C   UNL     1     146.449 168.546 188.038  0.00  0.00    +0.258 C 
ATOM     24  O   UNL     1     146.170 168.333 186.869  0.00  0.00    -0.271 OA
ATOM     25  H   UNL     1     140.438 165.062 188.154  0.00  0.00    +0.030 HD
ATOM     26  H   UNL     1     139.307 166.659 186.402  0.00  0.00    +0.027 HD
ATOM     27  H   UNL     1     140.932 166.962 185.798  0.00  0.00    +0.027 HD
ATOM     28  H   UNL     1     139.857 167.486 188.621  0.00  0.00    +0.027 HD
ATOM     29  H   UNL     1     141.552 167.622 188.180  0.00  0.00    +0.027 HD
ATOM     30  H   UNL     1     140.908 169.322 186.396  0.00  0.00    +0.029 HD
ATOM     31  H   UNL     1     139.247 169.245 186.999  0.00  0.00    +0.029 HD
ATOM     32  H   UNL     1     140.558 171.217 187.915  0.00  0.00    +0.064 HD
ATOM     33  H   UNL     1     142.817 170.123 188.086  0.00  0.00    +0.060 HD
ATOM     34  H   UNL     1     141.599 169.326 190.807  0.00  0.00    +0.069 HD
ATOM     35  H   UNL     1     144.774 166.333 190.146  0.00  0.00    +0.042 HD
ATOM     36  H   UNL     1     144.641 166.443 187.069  0.00  0.00    +0.057 HD
ATOM     37  H   UNL     1     142.809 165.294 189.243  0.00  0.00    +0.057 HD
ATOM     38  H   UNL     1     142.525 163.946 187.082  0.00  0.00    +0.031 HD
ATOM     39  H   UNL     1     142.728 165.405 186.134  0.00  0.00    +0.031 HD
ATOM     40  H   UNL     1     146.858 165.647 188.035  0.00  0.00    +0.065 HD
ATOM     41  H   UNL     1     149.182 165.187 188.766  0.00  0.00    +0.054 HD
ATOM     42  H   UNL     1     149.867 166.225 190.127  0.00  0.00    +0.054 HD
ATOM     43  H   UNL     1     146.603 166.666 191.611  0.00  0.00    +0.035 HD
ATOM     44  H   UNL     1     146.168 168.930 191.297  0.00  0.00    +0.037 HD
ATOM     45  H   UNL     1     148.664 169.375 190.122  0.00  0.00    +0.051 HD
ATOM     46  H   UNL     1     148.172 169.679 187.731  0.00  0.00    +0.149 HD
ENDROOT
BRANCH   1  47
ATOM     47  C   UNL     1     140.130 164.226 186.210  0.00  0.00    -0.062 C 
ATOM     48  H   UNL     1     140.720 163.303 186.154  0.00  0.00    +0.023 HD
ATOM     49  H   UNL     1     139.136 163.954 186.583  0.00  0.00    +0.023 HD
ATOM     50  H   UNL     1     140.018 164.621 185.195  0.00  0.00    +0.023 HD
ENDBRANCH   1  47
BRANCH  19  51
ATOM     51  C   UNL     1     148.466 167.523 192.032  0.00  0.00    -0.058 C 
ATOM     52  H   UNL     1     149.020 168.415 191.721  0.00  0.00    +0.024 HD
ATOM     53  H   UNL     1     149.186 166.711 192.165  0.00  0.00    +0.024 HD
ATOM     54  H   UNL     1     148.029 167.736 193.016  0.00  0.00    +0.024 HD
ENDBRANCH  19  51
BRANCH  21  55
ATOM     55  C   UNL     1     147.175 170.952 190.187  0.00  0.00    -0.009 C 
ATOM     56  H   UNL     1     146.105 170.958 190.429  0.00  0.00    +0.033 HD
ATOM     57  H   UNL     1     147.295 171.624 189.327  0.00  0.00    +0.033 HD
BRANCH  55  58
ATOM     58  C   UNL     1     147.931 171.516 191.368  0.00  0.00    -0.046 A 
ATOM     59  C   UNL     1     149.212 171.042 191.682  0.00  0.00    -0.059 A 
ATOM     60  C   UNL     1     149.902 171.546 192.785  0.00  0.00    -0.062 A 
ATOM     61  C   UNL     1     149.317 172.526 193.584  0.00  0.00    -0.062 A 
ATOM     62  C   UNL     1     148.044 173.003 193.282  0.00  0.00    -0.062 A 
ATOM     63  C   UNL     1     147.352 172.501 192.179  0.00  0.00    -0.059 A 
ATOM     64  H   UNL     1     149.680 170.274 191.070  0.00  0.00    +0.062 HD
ATOM     65  H   UNL     1     150.895 171.172 193.021  0.00  0.00    +0.062 HD
ATOM     66  H   UNL     1     149.855 172.919 194.444  0.00  0.00    +0.062 HD
ATOM     67  H   UNL     1     147.589 173.770 193.905  0.00  0.00    +0.062 HD
ATOM     68  H   UNL     1     146.359 172.885 191.958  0.00  0.00    +0.062 HD
ENDBRANCH  55  58
ENDBRANCH  21  55
BRANCH  16  69
ATOM     69  O   UNL     1     146.284 164.400 189.542  0.00  0.00    -0.387 OA
ATOM     70  H   UNL     1     145.351 164.213 189.353  0.00  0.00    +0.210 HD
ENDBRANCH  16  69
BRANCH   5  71
ATOM     71  O   UNL     1     139.724 170.135 189.432  0.00  0.00    -0.388 OA
ATOM     72  H   UNL     1     140.235 170.242 190.251  0.00  0.00    +0.210 HD
ENDBRANCH   5  71
TORSDOF 6
ENDMDL
MODEL 8
REMARK VINA RESULT:      -5.9      3.447      6.706
REMARK  Name = Cytochalasin B_conf3
REMARK  6 active torsions:
REMARK  status: ('A' for Active; 'I' for Inactive)
REMARK    1  A    between atoms: C_1  and  C_2
REMARK    2  A    between atoms: C_6  and  O_35
REMARK    3  A    between atoms: C_17  and  O_34
REMARK    4  A    between atoms: C_20  and  C_33
REMARK    5  A    between atoms: C_22  and  C_26
REMARK    6  A    between atoms: C_26  and  C_27
REMARK                            x       y       z     vdW  Elec       q    Type
REMARK                         _______ _______ _______ _____ _____    ______ ____
ROOT
ATOM      1  C   UNL     1     150.985 168.495 191.431  0.00  0.00    -0.040 C 
ATOM      2  C   UNL     1     150.618 169.545 192.506  0.00  0.00    -0.050 C 
ATOM      3  C   UNL     1     149.774 170.687 191.948  0.00  0.00    -0.050 C 
ATOM      4  C   UNL     1     149.239 171.624 193.048  0.00  0.00    -0.023 C 
ATOM      5  C   UNL     1     148.244 172.675 192.514  0.00  0.00    +0.074 C 
ATOM      6  C   UNL     1     147.140 171.989 191.757  0.00  0.00    -0.049 C 
ATOM      7  C   UNL     1     147.020 171.992 190.417  0.00  0.00    +0.021 C 
ATOM      8  C   UNL     1     146.229 170.997 189.672  0.00  0.00    +0.333 C 
ATOM      9  O   UNL     1     146.235 170.941 188.451  0.00  0.00    -0.246 OA
ATOM     10  O   UNL     1     145.609 170.132 190.506  0.00  0.00    -0.444 OA
ATOM     11  C   UNL     1     145.134 168.878 189.965  0.00  0.00    +0.202 C 
ATOM     12  C   UNL     1     146.296 167.973 189.451  0.00  0.00    +0.056 C 
ATOM     13  C   UNL     1     147.438 167.732 190.447  0.00  0.00    -0.078 C 
ATOM     14  C   UNL     1     148.744 167.952 190.206  0.00  0.00    -0.087 C 
ATOM     15  C   UNL     1     149.845 167.487 191.132  0.00  0.00    -0.032 C 
ATOM     16  C   UNL     1     145.731 166.599 188.975  0.00  0.00    +0.087 C 
ATOM     17  C   UNL     1     144.380 166.696 188.288  0.00  0.00    -0.045 C 
ATOM     18  C   UNL     1     143.581 165.617 188.205  0.00  0.00    -0.097 C 
ATOM     19  C   UNL     1     144.037 168.074 187.764  0.00  0.00    -0.012 C 
ATOM     20  C   UNL     1     143.976 169.099 188.927  0.00  0.00    +0.033 C 
ATOM     21  C   UNL     1     142.685 169.072 189.775  0.00  0.00    +0.035 C 
ATOM     22  N   UNL     1     143.044 168.317 190.940  0.00  0.00    -0.308 N 
ATOM     23  C   UNL     1     144.397 168.213 191.139  0.00  0.00    +0.258 C 
ATOM     24  O   UNL     1     144.881 167.690 192.131  0.00  0.00    -0.271 OA
ATOM     25  H   UNL     1     151.271 169.008 190.505  0.00  0.00    +0.030 HD
ATOM     26  H   UNL     1     151.532 169.982 192.929  0.00  0.00    +0.027 HD
ATOM     27  H   UNL     1     150.092 169.055 193.335  0.00  0.00    +0.027 HD
ATOM     28  H   UNL     1     150.364 171.264 191.226  0.00  0.00    +0.027 HD
ATOM     29  H   UNL     1     148.938 170.252 191.403  0.00  0.00    +0.027 HD
ATOM     30  H   UNL     1     148.744 171.024 193.823  0.00  0.00    +0.029 HD
ATOM     31  H   UNL     1     150.090 172.131 193.521  0.00  0.00    +0.029 HD
ATOM     32  H   UNL     1     147.814 173.244 193.344  0.00  0.00    +0.064 HD
ATOM     33  H   UNL     1     146.528 171.319 192.359  0.00  0.00    +0.060 HD
ATOM     34  H   UNL     1     147.656 172.613 189.795  0.00  0.00    +0.069 HD
ATOM     35  H   UNL     1     146.755 168.466 188.584  0.00  0.00    +0.042 HD
ATOM     36  H   UNL     1     147.162 167.251 191.386  0.00  0.00    +0.057 HD
ATOM     37  H   UNL     1     149.056 168.380 189.256  0.00  0.00    +0.057 HD
ATOM     38  H   UNL     1     150.284 166.609 190.641  0.00  0.00    +0.031 HD
ATOM     39  H   UNL     1     149.424 167.122 192.078  0.00  0.00    +0.031 HD
ATOM     40  H   UNL     1     145.654 165.915 189.828  0.00  0.00    +0.065 HD
ATOM     41  H   UNL     1     143.901 164.658 188.608  0.00  0.00    +0.054 HD
ATOM     42  H   UNL     1     142.604 165.637 187.735  0.00  0.00    +0.054 HD
ATOM     43  H   UNL     1     144.888 168.370 187.131  0.00  0.00    +0.035 HD
ATOM     44  H   UNL     1     144.039 170.086 188.454  0.00  0.00    +0.037 HD
ATOM     45  H   UNL     1     141.867 168.538 189.287  0.00  0.00    +0.051 HD
ATOM     46  H   UNL     1     142.385 167.958 191.622  0.00  0.00    +0.149 HD
ENDROOT
BRANCH   1  47
ATOM     47  C   UNL     1     152.212 167.712 191.921  0.00  0.00    -0.062 C 
ATOM     48  H   UNL     1     152.483 168.006 192.942  0.00  0.00    +0.023 HD
ATOM     49  H   UNL     1     152.008 166.635 191.935  0.00  0.00    +0.023 HD
ATOM     50  H   UNL     1     153.079 167.886 191.275  0.00  0.00    +0.023 HD
ENDBRANCH   1  47
BRANCH  19  51
ATOM     51  C   UNL     1     142.827 168.167 186.826  0.00  0.00    -0.058 C 
ATOM     52  H   UNL     1     142.655 167.206 186.327  0.00  0.00    +0.024 HD
ATOM     53  H   UNL     1     142.938 168.931 186.052  0.00  0.00    +0.024 HD
ATOM     54  H   UNL     1     141.920 168.407 187.394  0.00  0.00    +0.024 HD
ENDBRANCH  19  51
BRANCH  21  55
ATOM     55  C   UNL     1     142.223 170.497 190.148  0.00  0.00    -0.009 C 
ATOM     56  H   UNL     1     142.533 171.204 189.367  0.00  0.00    +0.033 HD
ATOM     57  H   UNL     1     142.706 170.837 191.073  0.00  0.00    +0.033 HD
BRANCH  55  58
ATOM     58  C   UNL     1     140.722 170.596 190.305  0.00  0.00    -0.046 A 
ATOM     59  C   UNL     1     139.872 169.840 189.487  0.00  0.00    -0.059 A 
ATOM     60  C   UNL     1     138.488 169.947 189.616  0.00  0.00    -0.062 A 
ATOM     61  C   UNL     1     137.940 170.810 190.563  0.00  0.00    -0.062 A 
ATOM     62  C   UNL     1     138.776 171.567 191.381  0.00  0.00    -0.062 A 
ATOM     63  C   UNL     1     140.162 171.462 191.253  0.00  0.00    -0.059 A 
ATOM     64  H   UNL     1     140.285 169.164 188.740  0.00  0.00    +0.062 HD
ATOM     65  H   UNL     1     137.836 169.356 188.977  0.00  0.00    +0.062 HD
ATOM     66  H   UNL     1     136.861 170.892 190.664  0.00  0.00    +0.062 HD
ATOM     67  H   UNL     1     138.348 172.240 192.121  0.00  0.00    +0.062 HD
ATOM     68  H   UNL     1     140.800 172.061 191.900  0.00  0.00    +0.062 HD
ENDBRANCH  55  58
ENDBRANCH  21  55
BRANCH  16  69
ATOM     69  O   UNL     1     146.639 166.001 188.046  0.00  0.00    -0.387 OA
ATOM     70  H   UNL     1     146.138 165.364 187.512  0.00  0.00    +0.210 HD
ENDBRANCH  16  69
BRANCH   5  71
ATOM     71  O   UNL     1     148.923 173.591 191.666  0.00  0.00    -0.388 OA
ATOM     72  H   UNL     1     148.253 174.003 191.095  0.00  0.00    +0.210 HD
ENDBRANCH   5  71
TORSDOF 6
ENDMDL
MODEL 9
REMARK VINA RESULT:      -5.8      2.058      7.236
REMARK  Name = Cytochalasin B_conf3
REMARK  6 active torsions:
REMARK  status: ('A' for Active; 'I' for Inactive)
REMARK    1  A    between atoms: C_1  and  C_2
REMARK    2  A    between atoms: C_6  and  O_35
REMARK    3  A    between atoms: C_17  and  O_34
REMARK    4  A    between atoms: C_20  and  C_33
REMARK    5  A    between atoms: C_22  and  C_26
REMARK    6  A    between atoms: C_26  and  C_27
REMARK                            x       y       z     vdW  Elec       q    Type
REMARK                         _______ _______ _______ _____ _____    ______ ____
ROOT
ATOM      1  C   UNL     1     149.820 165.276 183.766  0.00  0.00    -0.040 C 
ATOM      2  C   UNL     1     150.272 163.909 184.331  0.00  0.00    -0.050 C 
ATOM      3  C   UNL     1     151.223 164.047 185.515  0.00  0.00    -0.050 C 
ATOM      4  C   UNL     1     151.515 162.701 186.204  0.00  0.00    -0.023 C 
ATOM      5  C   UNL     1     152.331 162.854 187.505  0.00  0.00    +0.074 C 
ATOM      6  C   UNL     1     151.649 163.831 188.420  0.00  0.00    -0.049 C 
ATOM      7  C   UNL     1     152.078 165.086 188.650  0.00  0.00    +0.021 C 
ATOM      8  C   UNL     1     151.211 166.155 189.176  0.00  0.00    +0.333 C 
ATOM      9  O   UNL     1     151.584 167.316 189.257  0.00  0.00    -0.246 OA
ATOM     10  O   UNL     1     149.967 165.697 189.444  0.00  0.00    -0.444 OA
ATOM     11  C   UNL     1     148.896 166.660 189.576  0.00  0.00    +0.202 C 
ATOM     12  C   UNL     1     148.620 167.431 188.249  0.00  0.00    +0.056 C 
ATOM     13  C   UNL     1     148.409 166.556 187.007  0.00  0.00    -0.078 C 
ATOM     14  C   UNL     1     149.082 166.670 185.847  0.00  0.00    -0.087 C 
ATOM     15  C   UNL     1     148.683 165.942 184.584  0.00  0.00    -0.032 C 
ATOM     16  C   UNL     1     147.393 168.377 188.428  0.00  0.00    +0.087 C 
ATOM     17  C   UNL     1     147.307 169.018 189.801  0.00  0.00    -0.045 C 
ATOM     18  C   UNL     1     146.135 169.498 190.255  0.00  0.00    -0.097 C 
ATOM     19  C   UNL     1     148.609 169.029 190.574  0.00  0.00    -0.012 C 
ATOM     20  C   UNL     1     149.100 167.580 190.833  0.00  0.00    +0.033 C 
ATOM     21  C   UNL     1     148.393 166.830 191.983  0.00  0.00    +0.035 C 
ATOM     22  N   UNL     1     147.429 165.999 191.322  0.00  0.00    -0.308 N 
ATOM     23  C   UNL     1     147.677 165.816 189.985  0.00  0.00    +0.258 C 
ATOM     24  O   UNL     1     147.017 165.061 189.288  0.00  0.00    -0.271 OA
ATOM     25  H   UNL     1     150.681 165.954 183.722  0.00  0.00    +0.030 HD
ATOM     26  H   UNL     1     150.790 163.336 183.551  0.00  0.00    +0.027 HD
ATOM     27  H   UNL     1     149.392 163.321 184.619  0.00  0.00    +0.027 HD
ATOM     28  H   UNL     1     152.163 164.504 185.183  0.00  0.00    +0.027 HD
ATOM     29  H   UNL     1     150.772 164.733 186.231  0.00  0.00    +0.027 HD
ATOM     30  H   UNL     1     150.565 162.202 186.436  0.00  0.00    +0.029 HD
ATOM     31  H   UNL     1     152.060 162.058 185.502  0.00  0.00    +0.029 HD
ATOM     32  H   UNL     1     152.421 161.887 188.010  0.00  0.00    +0.064 HD
ATOM     33  H   UNL     1     150.661 163.522 188.757  0.00  0.00    +0.060 HD
ATOM     34  H   UNL     1     153.037 165.432 188.277  0.00  0.00    +0.069 HD
ATOM     35  H   UNL     1     149.496 168.055 188.030  0.00  0.00    +0.042 HD
ATOM     36  H   UNL     1     147.573 165.856 187.050  0.00  0.00    +0.057 HD
ATOM     37  H   UNL     1     149.884 167.400 185.755  0.00  0.00    +0.057 HD
ATOM     38  H   UNL     1     148.204 166.701 183.951  0.00  0.00    +0.031 HD
ATOM     39  H   UNL     1     147.905 165.198 184.799  0.00  0.00    +0.031 HD
ATOM     40  H   UNL     1     146.467 167.823 188.229  0.00  0.00    +0.065 HD
ATOM     41  H   UNL     1     145.241 169.453 189.637  0.00  0.00    +0.054 HD
ATOM     42  H   UNL     1     146.019 169.955 191.232  0.00  0.00    +0.054 HD
ATOM     43  H   UNL     1     149.347 169.494 189.903  0.00  0.00    +0.035 HD
ATOM     44  H   UNL     1     150.158 167.671 191.101  0.00  0.00    +0.037 HD
ATOM     45  H   UNL     1     147.839 167.495 192.648  0.00  0.00    +0.051 HD
ATOM     46  H   UNL     1     146.676 165.505 191.787  0.00  0.00    +0.149 HD
ENDROOT
BRANCH   1  47
ATOM     47  C   UNL     1     149.326 165.065 182.327  0.00  0.00    -0.062 C 
ATOM     48  H   UNL     1     148.317 164.638 182.318  0.00  0.00    +0.023 HD
ATOM     49  H   UNL     1     149.282 166.017 181.785  0.00  0.00    +0.023 HD
ATOM     50  H   UNL     1     149.988 164.389 181.775  0.00  0.00    +0.023 HD
ENDBRANCH   1  47
BRANCH  19  51
ATOM     51  C   UNL     1     148.648 169.904 191.834  0.00  0.00    -0.058 C 
ATOM     52  H   UNL     1     147.713 169.806 192.397  0.00  0.00    +0.024 HD
ATOM     53  H   UNL     1     148.799 170.965 191.618  0.00  0.00    +0.024 HD
ATOM     54  H   UNL     1     149.463 169.586 192.496  0.00  0.00    +0.024 HD
ENDBRANCH  19  51
BRANCH  21  55
ATOM     55  C   UNL     1     149.391 165.988 192.807  0.00  0.00    -0.009 C 
ATOM     56  H   UNL     1     150.412 166.355 192.640  0.00  0.00    +0.033 HD
ATOM     57  H   UNL     1     149.387 164.941 192.477  0.00  0.00    +0.033 HD
BRANCH  55  58
ATOM     58  C   UNL     1     149.106 166.043 194.291  0.00  0.00    -0.046 A 
ATOM     59  C   UNL     1     147.839 166.421 194.756  0.00  0.00    -0.059 A 
ATOM     60  C   UNL     1     147.582 166.494 196.125  0.00  0.00    -0.062 A 
ATOM     61  C   UNL     1     148.588 166.191 197.041  0.00  0.00    -0.062 A 
ATOM     62  C   UNL     1     149.851 165.816 196.589  0.00  0.00    -0.062 A 
ATOM     63  C   UNL     1     150.111 165.743 195.220  0.00  0.00    -0.059 A 
ATOM     64  H   UNL     1     147.044 166.663 194.054  0.00  0.00    +0.062 HD
ATOM     65  H   UNL     1     146.597 166.787 196.478  0.00  0.00    +0.062 HD
ATOM     66  H   UNL     1     148.386 166.247 198.108  0.00  0.00    +0.062 HD
ATOM     67  H   UNL     1     150.636 165.579 197.304  0.00  0.00    +0.062 HD
ATOM     68  H   UNL     1     151.103 165.448 194.885  0.00  0.00    +0.062 HD
ENDBRANCH  55  58
ENDBRANCH  21  55
BRANCH  16  69
ATOM     69  O   UNL     1     147.456 169.434 187.467  0.00  0.00    -0.387 OA
ATOM     70  H   UNL     1     147.727 169.047 186.619  0.00  0.00    +0.210 HD
ENDBRANCH  16  69
BRANCH   5  71
ATOM     71  O   UNL     1     153.644 163.304 187.197  0.00  0.00    -0.388 OA
ATOM     72  H   UNL     1     154.234 162.536 187.267  0.00  0.00    +0.210 HD
ENDBRANCH   5  71
TORSDOF 6
ENDMDL
MODEL 10
REMARK VINA RESULT:      -5.8      4.364      9.171
REMARK  Name = Cytochalasin B_conf3
REMARK  6 active torsions:
REMARK  status: ('A' for Active; 'I' for Inactive)
REMARK    1  A    between atoms: C_1  and  C_2
REMARK    2  A    between atoms: C_6  and  O_35
REMARK    3  A    between atoms: C_17  and  O_34
REMARK    4  A    between atoms: C_20  and  C_33
REMARK    5  A    between atoms: C_22  and  C_26
REMARK    6  A    between atoms: C_26  and  C_27
REMARK                            x       y       z     vdW  Elec       q    Type
REMARK                         _______ _______ _______ _____ _____    ______ ____
ROOT
ATOM      1  C   UNL     1     148.678 166.765 184.904  0.00  0.00    -0.040 C 
ATOM      2  C   UNL     1     148.831 165.405 184.183  0.00  0.00    -0.050 C 
ATOM      3  C   UNL     1     150.278 165.094 183.814  0.00  0.00    -0.050 C 
ATOM      4  C   UNL     1     150.462 163.661 183.281  0.00  0.00    -0.023 C 
ATOM      5  C   UNL     1     151.943 163.280 183.073  0.00  0.00    +0.074 C 
ATOM      6  C   UNL     1     152.712 163.524 184.341  0.00  0.00    -0.049 C 
ATOM      7  C   UNL     1     153.568 164.545 184.528  0.00  0.00    +0.021 C 
ATOM      8  C   UNL     1     153.974 165.030 185.859  0.00  0.00    +0.333 C 
ATOM      9  O   UNL     1     154.651 166.037 186.008  0.00  0.00    -0.246 OA
ATOM     10  O   UNL     1     153.424 164.287 186.846  0.00  0.00    -0.444 OA
ATOM     11  C   UNL     1     153.379 164.843 188.180  0.00  0.00    +0.202 C 
ATOM     12  C   UNL     1     152.480 166.115 188.266  0.00  0.00    +0.056 C 
ATOM     13  C   UNL     1     151.063 165.963 187.696  0.00  0.00    -0.078 C 
ATOM     14  C   UNL     1     150.503 166.764 186.770  0.00  0.00    -0.087 C 
ATOM     15  C   UNL     1     149.036 166.713 186.412  0.00  0.00    -0.032 C 
ATOM     16  C   UNL     1     152.391 166.606 189.743  0.00  0.00    +0.087 C 
ATOM     17  C   UNL     1     153.683 166.441 190.524  0.00  0.00    -0.045 C 
ATOM     18  C   UNL     1     153.666 166.409 191.869  0.00  0.00    -0.097 C 
ATOM     19  C   UNL     1     154.922 166.292 189.666  0.00  0.00    -0.012 C 
ATOM     20  C   UNL     1     154.820 165.025 188.778  0.00  0.00    +0.033 C 
ATOM     21  C   UNL     1     155.118 163.685 189.486  0.00  0.00    +0.035 C 
ATOM     22  N   UNL     1     153.822 163.144 189.777  0.00  0.00    -0.308 N 
ATOM     23  C   UNL     1     152.808 163.707 189.045  0.00  0.00    +0.258 C 
ATOM     24  O   UNL     1     151.657 163.303 189.091  0.00  0.00    -0.271 OA
ATOM     25  H   UNL     1     149.306 167.513 184.405  0.00  0.00    +0.030 HD
ATOM     26  H   UNL     1     148.243 165.405 183.256  0.00  0.00    +0.027 HD
ATOM     27  H   UNL     1     148.421 164.606 184.813  0.00  0.00    +0.027 HD
ATOM     28  H   UNL     1     150.632 165.815 183.067  0.00  0.00    +0.027 HD
ATOM     29  H   UNL     1     150.889 165.233 184.705  0.00  0.00    +0.027 HD
ATOM     30  H   UNL     1     150.007 162.953 183.986  0.00  0.00    +0.029 HD
ATOM     31  H   UNL     1     149.923 163.568 182.330  0.00  0.00    +0.029 HD
ATOM     32  H   UNL     1     152.026 162.224 182.797  0.00  0.00    +0.064 HD
ATOM     33  H   UNL     1     152.394 162.917 185.188  0.00  0.00    +0.060 HD
ATOM     34  H   UNL     1     153.858 165.196 183.709  0.00  0.00    +0.069 HD
ATOM     35  H   UNL     1     152.956 166.909 187.675  0.00  0.00    +0.042 HD
ATOM     36  H   UNL     1     150.438 165.201 188.163  0.00  0.00    +0.057 HD
ATOM     37  H   UNL     1     151.085 167.570 186.327  0.00  0.00    +0.057 HD
ATOM     38  H   UNL     1     148.588 167.588 186.901  0.00  0.00    +0.031 HD
ATOM     39  H   UNL     1     148.558 165.837 186.870  0.00  0.00    +0.031 HD
ATOM     40  H   UNL     1     151.585 166.073 190.263  0.00  0.00    +0.065 HD
ATOM     41  H   UNL     1     152.731 166.524 192.413  0.00  0.00    +0.054 HD
ATOM     42  H   UNL     1     154.558 166.283 192.470  0.00  0.00    +0.054 HD
ATOM     43  H   UNL     1     154.914 167.155 188.983  0.00  0.00    +0.035 HD
ATOM     44  H   UNL     1     155.571 165.155 187.991  0.00  0.00    +0.037 HD
ATOM     45  H   UNL     1     155.633 163.814 190.441  0.00  0.00    +0.051 HD
ATOM     46  H   UNL     1     153.649 162.359 190.394  0.00  0.00    +0.149 HD
ENDROOT
BRANCH   1  47
ATOM     47  C   UNL     1     147.218 167.223 184.765  0.00  0.00    -0.062 C 
ATOM     48  H   UNL     1     146.595 166.424 184.347  0.00  0.00    +0.023 HD
ATOM     49  H   UNL     1     146.797 167.488 185.741  0.00  0.00    +0.023 HD
ATOM     50  H   UNL     1     147.137 168.097 184.110  0.00  0.00    +0.023 HD
ENDBRANCH   1  47
BRANCH  19  51
ATOM     51  C   UNL     1     156.271 166.404 190.390  0.00  0.00    -0.058 C 
ATOM     52  H   UNL     1     156.143 166.239 191.465  0.00  0.00    +0.024 HD
ATOM     53  H   UNL     1     156.753 167.376 190.255  0.00  0.00    +0.024 HD
ATOM     54  H   UNL     1     156.967 165.641 190.022  0.00  0.00    +0.024 HD
ENDBRANCH  19  51
BRANCH  21  55
ATOM     55  C   UNL     1     155.935 162.736 188.583  0.00  0.00    -0.009 C 
ATOM     56  H   UNL     1     156.190 163.246 187.645  0.00  0.00    +0.033 HD
ATOM     57  H   UNL     1     155.341 161.858 188.299  0.00  0.00    +0.033 HD
BRANCH  55  58
ATOM     58  C   UNL     1     157.219 162.278 189.237  0.00  0.00    -0.046 A 
ATOM     59  C   UNL     1     157.593 160.928 189.195  0.00  0.00    -0.059 A 
ATOM     60  C   UNL     1     158.766 160.501 189.817  0.00  0.00    -0.062 A 
ATOM     61  C   UNL     1     159.575 161.418 190.487  0.00  0.00    -0.062 A 
ATOM     62  C   UNL     1     159.211 162.762 190.535  0.00  0.00    -0.062 A 
ATOM     63  C   UNL     1     158.037 163.192 189.914  0.00  0.00    -0.059 A 
ATOM     64  H   UNL     1     156.971 160.200 188.679  0.00  0.00    +0.062 HD
ATOM     65  H   UNL     1     159.050 159.452 189.780  0.00  0.00    +0.062 HD
ATOM     66  H   UNL     1     160.489 161.084 190.971  0.00  0.00    +0.062 HD
ATOM     67  H   UNL     1     159.842 163.477 191.057  0.00  0.00    +0.062 HD
ATOM     68  H   UNL     1     157.768 164.244 189.962  0.00  0.00    +0.062 HD
ENDBRANCH  55  58
ENDBRANCH  21  55
BRANCH  16  69
ATOM     69  O   UNL     1     152.052 167.995 189.769  0.00  0.00    -0.387 OA
ATOM     70  H   UNL     1     151.214 168.085 190.251  0.00  0.00    +0.210 HD
ENDBRANCH  16  69
BRANCH   5  71
ATOM     71  O   UNL     1     152.492 164.050 182.011  0.00  0.00    -0.388 OA
ATOM     72  H   UNL     1     152.735 163.430 181.304  0.00  0.00    +0.210 HD
ENDBRANCH   5  71
TORSDOF 6
ENDMDL
