MODEL 1
REMARK VINA RESULT:      -6.6      0.000      0.000
REMARK  Name = Cytochalasin D_conf1
REMARK  10 active torsions:
REMARK  status: ('A' for Active; 'I' for Inactive)
REMARK    1  A    between atoms: C_1  and  C_2
REMARK    2  A    between atoms: C_7  and  O_37
REMARK    3  A    between atoms: C_10  and  C_36
REMARK    4  A    between atoms: C_13  and  O_21
REMARK    5  A    between atoms: C_16  and  C_19
REMARK    6  A    between atoms: C_16  and  O_20
REMARK    7  A    between atoms: O_21  and  C_22
REMARK    8  A    between atoms: C_22  and  C_24
REMARK    9  A    between atoms: C_28  and  C_29
REMARK   10  A    between atoms: C_29  and  C_30
REMARK                            x       y       z     vdW  Elec       q    Type
REMARK                         _______ _______ _______ _____ _____    ______ ____
ROOT
ATOM      1  C   UNL     1     143.143 166.909 192.821  0.00  0.00    +0.021 C 
ATOM      2  C   UNL     1     144.201 166.140 193.630  0.00  0.00    -0.025 C 
ATOM      3  C   UNL     1     145.571 166.759 193.524  0.00  0.00    -0.087 C 
ATOM      4  C   UNL     1     146.592 166.212 192.842  0.00  0.00    -0.081 C 
ATOM      5  C   UNL     1     147.982 166.838 192.722  0.00  0.00    +0.025 C 
ATOM      6  C   UNL     1     149.017 165.916 193.428  0.00  0.00    +0.084 C 
ATOM      7  C   UNL     1     150.447 166.399 193.300  0.00  0.00    -0.045 C 
ATOM      8  C   UNL     1     151.462 165.635 193.742  0.00  0.00    -0.097 C 
ATOM      9  C   UNL     1     150.605 167.754 192.637  0.00  0.00    -0.015 C 
ATOM     10  C   UNL     1     149.949 167.723 191.233  0.00  0.00    +0.002 C 
ATOM     11  C   UNL     1     148.438 167.222 191.262  0.00  0.00    +0.101 C 
ATOM     12  C   UNL     1     147.533 168.326 190.609  0.00  0.00    +0.136 C 
ATOM     13  C   UNL     1     146.152 167.873 190.177  0.00  0.00    -0.044 C 
ATOM     14  C   UNL     1     144.971 168.271 190.686  0.00  0.00    -0.046 C 
ATOM     15  C   UNL     1     143.619 167.708 190.332  0.00  0.00    +0.139 C 
ATOM     16  C   UNL     1     143.264 166.574 191.333  0.00  0.00    +0.171 C 
ATOM     17  O   UNL     1     143.090 165.419 190.924  0.00  0.00    -0.294 OA
ATOM     18  C   UNL     1     148.494 165.969 190.393  0.00  0.00    +0.224 C 
ATOM     19  O   UNL     1     147.590 165.179 190.169  0.00  0.00    -0.275 OA
ATOM     20  N   UNL     1     149.749 165.786 189.890  0.00  0.00    -0.311 N 
ATOM     21  C   UNL     1     150.695 166.797 190.241  0.00  0.00    +0.032 C 
ATOM     22  H   UNL     1     143.272 167.987 192.970  0.00  0.00    +0.038 HD
ATOM     23  H   UNL     1     144.233 165.088 193.320  0.00  0.00    +0.031 HD
ATOM     24  H   UNL     1     143.928 166.139 194.693  0.00  0.00    +0.031 HD
ATOM     25  H   UNL     1     145.715 167.707 194.040  0.00  0.00    +0.057 HD
ATOM     26  H   UNL     1     146.434 165.261 192.333  0.00  0.00    +0.057 HD
ATOM     27  H   UNL     1     147.944 167.765 193.312  0.00  0.00    +0.038 HD
ATOM     28  H   UNL     1     148.945 164.892 193.041  0.00  0.00    +0.065 HD
ATOM     29  H   UNL     1     151.267 164.676 194.216  0.00  0.00    +0.054 HD
ATOM     30  H   UNL     1     152.502 165.935 193.677  0.00  0.00    +0.054 HD
ATOM     31  H   UNL     1     150.049 168.477 193.251  0.00  0.00    +0.035 HD
ATOM     32  H   UNL     1     149.998 168.749 190.859  0.00  0.00    +0.034 HD
ATOM     33  H   UNL     1     148.009 168.710 189.703  0.00  0.00    +0.079 HD
ATOM     34  H   UNL     1     146.145 167.129 189.380  0.00  0.00    +0.061 HD
ATOM     35  H   UNL     1     144.970 169.010 191.484  0.00  0.00    +0.060 HD
ATOM     36  H   UNL     1     149.952 164.969 189.326  0.00  0.00    +0.149 HD
ATOM     37  H   UNL     1     151.511 166.262 190.738  0.00  0.00    +0.050 HD
ENDROOT
BRANCH   1  38
ATOM     38  C   UNL     1     141.733 166.539 193.281  0.00  0.00    -0.055 C 
ATOM     39  H   UNL     1     141.732 165.621 193.878  0.00  0.00    +0.024 HD
ATOM     40  H   UNL     1     141.073 166.376 192.422  0.00  0.00    +0.024 HD
ATOM     41  H   UNL     1     141.300 167.339 193.890  0.00  0.00    +0.024 HD
ENDBRANCH   1  38
BRANCH  15  42
ATOM     42  C   UNL     1     142.536 168.782 190.313  0.00  0.00    -0.025 C 
ATOM     43  H   UNL     1     141.525 168.362 190.333  0.00  0.00    +0.026 HD
ATOM     44  H   UNL     1     142.640 169.460 191.170  0.00  0.00    +0.026 HD
ATOM     45  H   UNL     1     142.622 169.402 189.413  0.00  0.00    +0.026 HD
ENDBRANCH  15  42
BRANCH   9  46
ATOM     46  C   UNL     1     152.032 168.319 192.577  0.00  0.00    -0.058 C 
ATOM     47  H   UNL     1     152.329 168.499 191.539  0.00  0.00    +0.024 HD
ATOM     48  H   UNL     1     152.092 169.279 193.104  0.00  0.00    +0.024 HD
ATOM     49  H   UNL     1     152.773 167.647 193.022  0.00  0.00    +0.024 HD
ENDBRANCH   9  46
BRANCH  21  50
ATOM     50  C   UNL     1     151.320 167.495 189.013  0.00  0.00    -0.009 C 
ATOM     51  H   UNL     1     150.639 167.383 188.160  0.00  0.00    +0.033 HD
ATOM     52  H   UNL     1     151.362 168.576 189.209  0.00  0.00    +0.033 HD
BRANCH  50  53
ATOM     53  C   UNL     1     152.707 167.059 188.610  0.00  0.00    -0.046 A 
ATOM     54  C   UNL     1     153.626 166.630 189.576  0.00  0.00    -0.059 A 
ATOM     55  C   UNL     1     154.915 166.241 189.209  0.00  0.00    -0.062 A 
ATOM     56  C   UNL     1     155.300 166.265 187.872  0.00  0.00    -0.062 A 
ATOM     57  C   UNL     1     154.392 166.673 186.898  0.00  0.00    -0.062 A 
ATOM     58  C   UNL     1     153.102 167.061 187.264  0.00  0.00    -0.059 A 
ATOM     59  H   UNL     1     153.358 166.617 190.631  0.00  0.00    +0.062 HD
ATOM     60  H   UNL     1     155.623 165.933 189.975  0.00  0.00    +0.062 HD
ATOM     61  H   UNL     1     156.307 165.970 187.589  0.00  0.00    +0.062 HD
ATOM     62  H   UNL     1     154.690 166.692 185.853  0.00  0.00    +0.062 HD
ATOM     63  H   UNL     1     152.411 167.370 186.484  0.00  0.00    +0.062 HD
ENDBRANCH  50  53
ENDBRANCH  21  50
BRANCH  15  64
ATOM     64  O   UNL     1     143.667 167.161 189.010  0.00  0.00    -0.377 OA
ATOM     65  H   UNL     1     144.600 166.899 188.866  0.00  0.00    +0.211 HD
ENDBRANCH  15  64
BRANCH   6  66
ATOM     66  O   UNL     1     148.736 165.875 194.832  0.00  0.00    -0.387 OA
ATOM     67  H   UNL     1     148.509 166.783 195.097  0.00  0.00    +0.210 HD
ENDBRANCH   6  66
BRANCH  12  68
ATOM     68  O   UNL     1     147.358 169.395 191.580  0.00  0.00    -0.456 OA
BRANCH  68  69
ATOM     69  C   UNL     1     147.868 170.622 191.315  0.00  0.00    +0.305 C 
ATOM     70  O   UNL     1     147.734 171.254 190.279  0.00  0.00    -0.251 OA
BRANCH  69  71
ATOM     71  C   UNL     1     148.684 171.090 192.482  0.00  0.00    +0.033 C 
ATOM     72  H   UNL     1     149.737 171.142 192.196  0.00  0.00    +0.034 HD
ATOM     73  H   UNL     1     148.345 172.086 192.785  0.00  0.00    +0.034 HD
ATOM     74  H   UNL     1     148.548 170.413 193.329  0.00  0.00    +0.034 HD
ENDBRANCH  69  71
ENDBRANCH  68  69
ENDBRANCH  12  68
TORSDOF 10
ENDMDL
MODEL 2
REMARK VINA RESULT:      -6.3      3.146      5.987
REMARK  Name = Cytochalasin D_conf1
REMARK  10 active torsions:
REMARK  status: ('A' for Active; 'I' for Inactive)
REMARK    1  A    between atoms: C_1  and  C_2
REMARK    2  A    between atoms: C_7  and  O_37
REMARK    3  A    between atoms: C_10  and  C_36
REMARK    4  A    between atoms: C_13  and  O_21
REMARK    5  A    between atoms: C_16  and  C_19
REMARK    6  A    between atoms: C_16  and  O_20
REMARK    7  A    between atoms: O_21  and  C_22
REMARK    8  A    between atoms: C_22  and  C_24
REMARK    9  A    between atoms: C_28  and  C_29
REMARK   10  A    between atoms: C_29  and  C_30
REMARK                            x       y       z     vdW  Elec       q    Type
REMARK                         _______ _______ _______ _____ _____    ______ ____
ROOT
ATOM      1  C   UNL     1     144.459 170.191 185.658  0.00  0.00    +0.021 C 
ATOM      2  C   UNL     1     144.788 171.197 186.775  0.00  0.00    -0.025 C 
ATOM      3  C   UNL     1     146.009 170.804 187.565  0.00  0.00    -0.087 C 
ATOM      4  C   UNL     1     145.973 170.354 188.830  0.00  0.00    -0.081 C 
ATOM      5  C   UNL     1     147.207 169.945 189.635  0.00  0.00    +0.025 C 
ATOM      6  C   UNL     1     147.375 170.918 190.838  0.00  0.00    +0.084 C 
ATOM      7  C   UNL     1     148.524 170.555 191.756  0.00  0.00    -0.045 C 
ATOM      8  C   UNL     1     148.707 171.224 192.909  0.00  0.00    -0.097 C 
ATOM      9  C   UNL     1     149.389 169.407 191.272  0.00  0.00    -0.015 C 
ATOM     10  C   UNL     1     148.504 168.154 191.043  0.00  0.00    +0.002 C 
ATOM     11  C   UNL     1     147.261 168.435 190.090  0.00  0.00    +0.101 C 
ATOM     12  C   UNL     1     147.321 167.436 188.881  0.00  0.00    +0.136 C 
ATOM     13  C   UNL     1     146.032 167.269 188.100  0.00  0.00    -0.044 C 
ATOM     14  C   UNL     1     145.806 167.625 186.822  0.00  0.00    -0.046 C 
ATOM     15  C   UNL     1     144.480 167.572 186.109  0.00  0.00    +0.139 C 
ATOM     16  C   UNL     1     143.778 168.952 186.243  0.00  0.00    +0.171 C 
ATOM     17  O   UNL     1     142.687 169.038 186.821  0.00  0.00    -0.294 OA
ATOM     18  C   UNL     1     146.076 168.129 191.001  0.00  0.00    +0.224 C 
ATOM     19  O   UNL     1     144.890 168.268 190.750  0.00  0.00    -0.275 OA
ATOM     20  N   UNL     1     146.506 167.691 192.220  0.00  0.00    -0.311 N 
ATOM     21  C   UNL     1     147.923 167.579 192.358  0.00  0.00    +0.032 C 
ATOM     22  H   UNL     1     145.378 169.899 185.139  0.00  0.00    +0.038 HD
ATOM     23  H   UNL     1     143.926 171.325 187.443  0.00  0.00    +0.031 HD
ATOM     24  H   UNL     1     144.988 172.183 186.339  0.00  0.00    +0.031 HD
ATOM     25  H   UNL     1     146.967 170.898 187.054  0.00  0.00    +0.057 HD
ATOM     26  H   UNL     1     145.007 170.267 189.330  0.00  0.00    +0.057 HD
ATOM     27  H   UNL     1     148.067 170.123 188.975  0.00  0.00    +0.038 HD
ATOM     28  H   UNL     1     146.447 170.967 191.422  0.00  0.00    +0.065 HD
ATOM     29  H   UNL     1     148.048 172.044 193.183  0.00  0.00    +0.054 HD
ATOM     30  H   UNL     1     149.514 171.006 193.599  0.00  0.00    +0.054 HD
ATOM     31  H   UNL     1     149.803 169.706 190.299  0.00  0.00    +0.035 HD
ATOM     32  H   UNL     1     149.161 167.405 190.593  0.00  0.00    +0.034 HD
ATOM     33  H   UNL     1     147.575 166.433 189.239  0.00  0.00    +0.079 HD
ATOM     34  H   UNL     1     145.210 166.830 188.666  0.00  0.00    +0.061 HD
ATOM     35  H   UNL     1     146.621 168.066 186.252  0.00  0.00    +0.060 HD
ATOM     36  H   UNL     1     145.832 167.487 192.949  0.00  0.00    +0.149 HD
ATOM     37  H   UNL     1     148.176 168.216 193.212  0.00  0.00    +0.050 HD
ENDROOT
BRANCH   1  38
ATOM     38  C   UNL     1     143.517 170.812 184.627  0.00  0.00    -0.055 C 
ATOM     39  H   UNL     1     142.469 170.721 184.933  0.00  0.00    +0.024 HD
ATOM     40  H   UNL     1     143.623 170.319 183.655  0.00  0.00    +0.024 HD
ATOM     41  H   UNL     1     143.738 171.876 184.491  0.00  0.00    +0.024 HD
ENDBRANCH   1  38
BRANCH  15  42
ATOM     42  C   UNL     1     144.630 167.173 184.644  0.00  0.00    -0.025 C 
ATOM     43  H   UNL     1     144.903 166.120 184.520  0.00  0.00    +0.026 HD
ATOM     44  H   UNL     1     143.700 167.352 184.091  0.00  0.00    +0.026 HD
ATOM     45  H   UNL     1     145.404 167.778 184.157  0.00  0.00    +0.026 HD
ENDBRANCH  15  42
BRANCH   9  46
ATOM     46  C   UNL     1     150.620 169.076 192.129  0.00  0.00    -0.058 C 
ATOM     47  H   UNL     1     150.313 168.659 193.094  0.00  0.00    +0.024 HD
ATOM     48  H   UNL     1     151.245 168.322 191.635  0.00  0.00    +0.024 HD
ATOM     49  H   UNL     1     151.245 169.951 192.329  0.00  0.00    +0.024 HD
ENDBRANCH   9  46
BRANCH  21  50
ATOM     50  C   UNL     1     148.386 166.153 192.728  0.00  0.00    -0.009 C 
ATOM     51  H   UNL     1     147.535 165.468 192.620  0.00  0.00    +0.033 HD
ATOM     52  H   UNL     1     149.122 165.820 191.984  0.00  0.00    +0.033 HD
BRANCH  50  53
ATOM     53  C   UNL     1     149.010 165.968 194.090  0.00  0.00    -0.046 A 
ATOM     54  C   UNL     1     148.225 166.040 195.247  0.00  0.00    -0.059 A 
ATOM     55  C   UNL     1     148.801 165.884 196.509  0.00  0.00    -0.062 A 
ATOM     56  C   UNL     1     150.167 165.646 196.631  0.00  0.00    -0.062 A 
ATOM     57  C   UNL     1     150.957 165.555 195.488  0.00  0.00    -0.062 A 
ATOM     58  C   UNL     1     150.382 165.709 194.226  0.00  0.00    -0.059 A 
ATOM     59  H   UNL     1     147.157 166.243 195.183  0.00  0.00    +0.062 HD
ATOM     60  H   UNL     1     148.181 165.967 197.398  0.00  0.00    +0.062 HD
ATOM     61  H   UNL     1     150.615 165.534 197.614  0.00  0.00    +0.062 HD
ATOM     62  H   UNL     1     152.024 165.368 195.580  0.00  0.00    +0.062 HD
ATOM     63  H   UNL     1     151.020 165.627 193.349  0.00  0.00    +0.062 HD
ENDBRANCH  50  53
ENDBRANCH  21  50
BRANCH  15  64
ATOM     64  O   UNL     1     143.656 166.572 186.717  0.00  0.00    -0.377 OA
ATOM     65  H   UNL     1     143.042 167.058 187.306  0.00  0.00    +0.211 HD
ENDBRANCH  15  64
BRANCH   6  66
ATOM     66  O   UNL     1     147.657 172.233 190.349  0.00  0.00    -0.387 OA
ATOM     67  H   UNL     1     148.190 172.676 191.032  0.00  0.00    +0.210 HD
ENDBRANCH   6  66
BRANCH  12  68
ATOM     68  O   UNL     1     148.335 167.913 187.954  0.00  0.00    -0.456 OA
BRANCH  68  69
ATOM     69  C   UNL     1     149.367 167.099 187.622  0.00  0.00    +0.305 C 
ATOM     70  O   UNL     1     150.145 166.564 188.395  0.00  0.00    -0.251 OA
BRANCH  69  71
ATOM     71  C   UNL     1     149.455 166.983 186.131  0.00  0.00    +0.033 C 
ATOM     72  H   UNL     1     149.238 167.951 185.674  0.00  0.00    +0.034 HD
ATOM     73  H   UNL     1     150.467 166.672 185.850  0.00  0.00    +0.034 HD
ATOM     74  H   UNL     1     148.756 166.222 185.773  0.00  0.00    +0.034 HD
ENDBRANCH  69  71
ENDBRANCH  68  69
ENDBRANCH  12  68
TORSDOF 10
ENDMDL
MODEL 3
REMARK VINA RESULT:      -6.2      2.522      6.852
REMARK  Name = Cytochalasin D_conf1
REMARK  10 active torsions:
REMARK  status: ('A' for Active; 'I' for Inactive)
REMARK    1  A    between atoms: C_1  and  C_2
REMARK    2  A    between atoms: C_7  and  O_37
REMARK    3  A    between atoms: C_10  and  C_36
REMARK    4  A    between atoms: C_13  and  O_21
REMARK    5  A    between atoms: C_16  and  C_19
REMARK    6  A    between atoms: C_16  and  O_20
REMARK    7  A    between atoms: O_21  and  C_22
REMARK    8  A    between atoms: C_22  and  C_24
REMARK    9  A    between atoms: C_28  and  C_29
REMARK   10  A    between atoms: C_29  and  C_30
REMARK                            x       y       z     vdW  Elec       q    Type
REMARK                         _______ _______ _______ _____ _____    ______ ____
ROOT
ATOM      1  C   UNL     1     151.924 166.198 192.946  0.00  0.00    +0.021 C 
ATOM      2  C   UNL     1     150.685 166.158 193.857  0.00  0.00    -0.025 C 
ATOM      3  C   UNL     1     149.421 165.843 193.100  0.00  0.00    -0.087 C 
ATOM      4  C   UNL     1     148.447 166.737 192.858  0.00  0.00    -0.081 C 
ATOM      5  C   UNL     1     147.166 166.427 192.082  0.00  0.00    +0.025 C 
ATOM      6  C   UNL     1     145.947 166.566 193.039  0.00  0.00    +0.084 C 
ATOM      7  C   UNL     1     144.612 166.361 192.354  0.00  0.00    -0.045 C 
ATOM      8  C   UNL     1     143.466 166.584 193.023  0.00  0.00    -0.097 C 
ATOM      9  C   UNL     1     144.699 165.921 190.905  0.00  0.00    -0.015 C 
ATOM     10  C   UNL     1     145.532 166.951 190.101  0.00  0.00    +0.002 C 
ATOM     11  C   UNL     1     146.959 167.239 190.746  0.00  0.00    +0.101 C 
ATOM     12  C   UNL     1     148.063 166.940 189.672  0.00  0.00    +0.136 C 
ATOM     13  C   UNL     1     149.430 167.534 189.950  0.00  0.00    -0.044 C 
ATOM     14  C   UNL     1     150.568 166.864 190.212  0.00  0.00    -0.046 C 
ATOM     15  C   UNL     1     151.883 167.477 190.617  0.00  0.00    +0.139 C 
ATOM     16  C   UNL     1     151.968 167.515 192.168  0.00  0.00    +0.171 C 
ATOM     17  O   UNL     1     152.065 168.599 192.756  0.00  0.00    -0.294 OA
ATOM     18  C   UNL     1     146.881 168.731 191.056  0.00  0.00    +0.224 C 
ATOM     19  O   UNL     1     147.712 169.414 191.633  0.00  0.00    -0.275 OA
ATOM     20  N   UNL     1     145.693 169.251 190.630  0.00  0.00    -0.311 N 
ATOM     21  C   UNL     1     144.829 168.325 189.972  0.00  0.00    +0.032 C 
ATOM     22  H   UNL     1     151.897 165.355 192.247  0.00  0.00    +0.038 HD
ATOM     23  H   UNL     1     150.577 167.105 194.402  0.00  0.00    +0.031 HD
ATOM     24  H   UNL     1     150.809 165.378 194.619  0.00  0.00    +0.031 HD
ATOM     25  H   UNL     1     149.316 164.821 192.737  0.00  0.00    +0.057 HD
ATOM     26  H   UNL     1     148.565 167.755 193.229  0.00  0.00    +0.057 HD
ATOM     27  H   UNL     1     147.228 165.362 191.817  0.00  0.00    +0.038 HD
ATOM     28  H   UNL     1     145.955 167.548 193.530  0.00  0.00    +0.065 HD
ATOM     29  H   UNL     1     143.485 166.890 194.066  0.00  0.00    +0.054 HD
ATOM     30  H   UNL     1     142.485 166.450 192.581  0.00  0.00    +0.054 HD
ATOM     31  H   UNL     1     145.245 164.967 190.894  0.00  0.00    +0.035 HD
ATOM     32  H   UNL     1     145.651 166.523 189.102  0.00  0.00    +0.034 HD
ATOM     33  H   UNL     1     147.761 167.348 188.703  0.00  0.00    +0.079 HD
ATOM     34  H   UNL     1     149.462 168.623 189.952  0.00  0.00    +0.061 HD
ATOM     35  H   UNL     1     150.544 165.776 190.215  0.00  0.00    +0.060 HD
ATOM     36  H   UNL     1     145.478 170.226 190.805  0.00  0.00    +0.149 HD
ATOM     37  H   UNL     1     143.898 168.346 190.547  0.00  0.00    +0.050 HD
ENDROOT
BRANCH   1  38
ATOM     38  C   UNL     1     153.207 166.085 193.768  0.00  0.00    -0.055 C 
ATOM     39  H   UNL     1     153.494 167.049 194.202  0.00  0.00    +0.024 HD
ATOM     40  H   UNL     1     154.040 165.740 193.146  0.00  0.00    +0.024 HD
ATOM     41  H   UNL     1     153.081 165.370 194.588  0.00  0.00    +0.024 HD
ENDBRANCH   1  38
BRANCH  15  42
ATOM     42  C   UNL     1     153.073 166.731 190.021  0.00  0.00    -0.025 C 
ATOM     43  H   UNL     1     152.848 165.681 189.808  0.00  0.00    +0.026 HD
ATOM     44  H   UNL     1     153.406 167.204 189.088  0.00  0.00    +0.026 HD
ATOM     45  H   UNL     1     153.928 166.757 190.706  0.00  0.00    +0.026 HD
ENDBRANCH  15  42
BRANCH   9  46
ATOM     46  C   UNL     1     143.366 165.610 190.208  0.00  0.00    -0.058 C 
ATOM     47  H   UNL     1     143.407 164.627 189.727  0.00  0.00    +0.024 HD
ATOM     48  H   UNL     1     142.546 165.582 190.936  0.00  0.00    +0.024 HD
ATOM     49  H   UNL     1     143.107 166.345 189.440  0.00  0.00    +0.024 HD
ENDBRANCH   9  46
BRANCH  21  50
ATOM     50  C   UNL     1     144.459 168.756 188.535  0.00  0.00    -0.009 C 
ATOM     51  H   UNL     1     143.510 168.281 188.258  0.00  0.00    +0.033 HD
ATOM     52  H   UNL     1     144.254 169.835 188.536  0.00  0.00    +0.033 HD
BRANCH  50  53
ATOM     53  C   UNL     1     145.484 168.496 187.458  0.00  0.00    -0.046 A 
ATOM     54  C   UNL     1     145.410 167.341 186.671  0.00  0.00    -0.059 A 
ATOM     55  C   UNL     1     146.364 167.089 185.683  0.00  0.00    -0.062 A 
ATOM     56  C   UNL     1     147.399 167.993 185.464  0.00  0.00    -0.062 A 
ATOM     57  C   UNL     1     147.476 169.155 186.227  0.00  0.00    -0.062 A 
ATOM     58  C   UNL     1     146.522 169.408 187.214  0.00  0.00    -0.059 A 
ATOM     59  H   UNL     1     144.621 166.608 186.832  0.00  0.00    +0.062 HD
ATOM     60  H   UNL     1     146.305 166.176 185.098  0.00  0.00    +0.062 HD
ATOM     61  H   UNL     1     148.146 167.791 184.701  0.00  0.00    +0.062 HD
ATOM     62  H   UNL     1     148.283 169.863 186.057  0.00  0.00    +0.062 HD
ATOM     63  H   UNL     1     146.601 170.325 187.792  0.00  0.00    +0.062 HD
ENDBRANCH  50  53
ENDBRANCH  21  50
BRANCH  15  64
ATOM     64  O   UNL     1     151.954 168.816 190.116  0.00  0.00    -0.377 OA
ATOM     65  H   UNL     1     152.075 168.730 189.148  0.00  0.00    +0.211 HD
ENDBRANCH  15  64
BRANCH   6  66
ATOM     66  O   UNL     1     146.028 165.565 194.060  0.00  0.00    -0.387 OA
ATOM     67  H   UNL     1     146.882 165.692 194.508  0.00  0.00    +0.210 HD
ENDBRANCH   6  66
BRANCH  12  68
ATOM     68  O   UNL     1     148.223 165.497 189.583  0.00  0.00    -0.456 OA
BRANCH  68  69
ATOM     69  C   UNL     1     148.095 164.887 188.381  0.00  0.00    +0.305 C 
ATOM     70  O   UNL     1     148.853 164.993 187.429  0.00  0.00    -0.251 OA
BRANCH  69  71
ATOM     71  C   UNL     1     146.832 164.080 188.358  0.00  0.00    +0.033 C 
ATOM     72  H   UNL     1     146.758 163.542 187.410  0.00  0.00    +0.034 HD
ATOM     73  H   UNL     1     146.848 163.358 189.180  0.00  0.00    +0.034 HD
ATOM     74  H   UNL     1     145.967 164.734 188.498  0.00  0.00    +0.034 HD
ENDBRANCH  69  71
ENDBRANCH  68  69
ENDBRANCH  12  68
TORSDOF 10
ENDMDL
MODEL 4
REMARK VINA RESULT:      -6.0      2.813      7.726
REMARK  Name = Cytochalasin D_conf1
REMARK  10 active torsions:
REMARK  status: ('A' for Active; 'I' for Inactive)
REMARK    1  A    between atoms: C_1  and  C_2
REMARK    2  A    between atoms: C_7  and  O_37
REMARK    3  A    between atoms: C_10  and  C_36
REMARK    4  A    between atoms: C_13  and  O_21
REMARK    5  A    between atoms: C_16  and  C_19
REMARK    6  A    between atoms: C_16  and  O_20
REMARK    7  A    between atoms: O_21  and  C_22
REMARK    8  A    between atoms: C_22  and  C_24
REMARK    9  A    between atoms: C_28  and  C_29
REMARK   10  A    between atoms: C_29  and  C_30
REMARK                            x       y       z     vdW  Elec       q    Type
REMARK                         _______ _______ _______ _____ _____    ______ ____
ROOT
ATOM      1  C   UNL     1     154.974 164.386 189.159  0.00  0.00    +0.021 C 
ATOM      2  C   UNL     1     154.516 164.395 190.628  0.00  0.00    -0.025 C 
ATOM      3  C   UNL     1     153.028 164.582 190.768  0.00  0.00    -0.087 C 
ATOM      4  C   UNL     1     152.452 165.706 191.228  0.00  0.00    -0.081 C 
ATOM      5  C   UNL     1     150.942 165.908 191.363  0.00  0.00    +0.025 C 
ATOM      6  C   UNL     1     150.585 166.068 192.869  0.00  0.00    +0.084 C 
ATOM      7  C   UNL     1     149.118 166.358 193.117  0.00  0.00    -0.045 C 
ATOM      8  C   UNL     1     148.687 166.655 194.357  0.00  0.00    -0.097 C 
ATOM      9  C   UNL     1     148.240 166.300 191.883  0.00  0.00    -0.015 C 
ATOM     10  C   UNL     1     148.781 167.285 190.816  0.00  0.00    +0.002 C 
ATOM     11  C   UNL     1     150.323 167.064 190.487  0.00  0.00    +0.101 C 
ATOM     12  C   UNL     1     150.474 166.809 188.945  0.00  0.00    +0.136 C 
ATOM     13  C   UNL     1     151.871 166.983 188.384  0.00  0.00    -0.044 C 
ATOM     14  C   UNL     1     152.659 166.028 187.856  0.00  0.00    -0.046 C 
ATOM     15  C   UNL     1     154.093 166.199 187.428  0.00  0.00    +0.139 C 
ATOM     16  C   UNL     1     155.025 165.813 188.610  0.00  0.00    +0.171 C 
ATOM     17  O   UNL     1     155.788 166.657 189.097  0.00  0.00    -0.294 OA
ATOM     18  C   UNL     1     150.937 168.401 190.888  0.00  0.00    +0.224 C 
ATOM     19  O   UNL     1     152.119 168.704 190.894  0.00  0.00    -0.275 OA
ATOM     20  N   UNL     1     149.971 169.271 191.305  0.00  0.00    -0.311 N 
ATOM     21  C   UNL     1     148.635 168.768 191.237  0.00  0.00    +0.032 C 
ATOM     22  H   UNL     1     154.286 163.781 188.559  0.00  0.00    +0.038 HD
ATOM     23  H   UNL     1     155.053 165.167 191.194  0.00  0.00    +0.031 HD
ATOM     24  H   UNL     1     154.767 163.437 191.101  0.00  0.00    +0.031 HD
ATOM     25  H   UNL     1     152.404 163.741 190.469  0.00  0.00    +0.057 HD
ATOM     26  H   UNL     1     153.090 166.539 191.525  0.00  0.00    +0.057 HD
ATOM     27  H   UNL     1     150.484 164.963 191.039  0.00  0.00    +0.038 HD
ATOM     28  H   UNL     1     151.192 166.861 193.325  0.00  0.00    +0.065 HD
ATOM     29  H   UNL     1     149.379 166.667 195.195  0.00  0.00    +0.054 HD
ATOM     30  H   UNL     1     147.649 166.867 194.588  0.00  0.00    +0.054 HD
ATOM     31  H   UNL     1     148.328 165.283 191.475  0.00  0.00    +0.035 HD
ATOM     32  H   UNL     1     148.177 167.115 189.920  0.00  0.00    +0.034 HD
ATOM     33  H   UNL     1     149.847 167.512 188.389  0.00  0.00    +0.079 HD
ATOM     34  H   UNL     1     152.264 167.998 188.445  0.00  0.00    +0.061 HD
ATOM     35  H   UNL     1     152.275 165.011 187.794  0.00  0.00    +0.060 HD
ATOM     36  H   UNL     1     150.231 170.189 191.644  0.00  0.00    +0.149 HD
ATOM     37  H   UNL     1     148.248 168.851 192.258  0.00  0.00    +0.050 HD
ENDROOT
BRANCH   1  38
ATOM     38  C   UNL     1     156.369 163.774 189.029  0.00  0.00    -0.055 C 
ATOM     39  H   UNL     1     157.047 164.432 188.473  0.00  0.00    +0.024 HD
ATOM     40  H   UNL     1     156.327 162.818 188.498  0.00  0.00    +0.024 HD
ATOM     41  H   UNL     1     156.808 163.593 190.016  0.00  0.00    +0.024 HD
ENDBRANCH   1  38
BRANCH  15  42
ATOM     42  C   UNL     1     154.422 165.382 186.182  0.00  0.00    -0.025 C 
ATOM     43  H   UNL     1     153.736 164.541 186.036  0.00  0.00    +0.026 HD
ATOM     44  H   UNL     1     154.389 166.008 185.282  0.00  0.00    +0.026 HD
ATOM     45  H   UNL     1     155.439 164.976 186.243  0.00  0.00    +0.026 HD
ENDBRANCH  15  42
BRANCH   9  46
ATOM     46  C   UNL     1     146.733 166.492 192.112  0.00  0.00    -0.058 C 
ATOM     47  H   UNL     1     146.250 165.528 192.305  0.00  0.00    +0.024 HD
ATOM     48  H   UNL     1     146.552 167.127 192.988  0.00  0.00    +0.024 HD
ATOM     49  H   UNL     1     146.228 166.951 191.256  0.00  0.00    +0.024 HD
ENDBRANCH   9  46
BRANCH  21  50
ATOM     50  C   UNL     1     147.708 169.629 190.352  0.00  0.00    -0.009 C 
ATOM     51  H   UNL     1     146.976 170.134 190.995  0.00  0.00    +0.033 HD
ATOM     52  H   UNL     1     148.303 170.436 189.902  0.00  0.00    +0.033 HD
BRANCH  50  53
ATOM     53  C   UNL     1     146.988 168.925 189.227  0.00  0.00    -0.046 A 
ATOM     54  C   UNL     1     145.716 168.377 189.432  0.00  0.00    -0.059 A 
ATOM     55  C   UNL     1     145.052 167.711 188.400  0.00  0.00    -0.062 A 
ATOM     56  C   UNL     1     145.648 167.592 187.147  0.00  0.00    -0.062 A 
ATOM     57  C   UNL     1     146.905 168.148 186.924  0.00  0.00    -0.062 A 
ATOM     58  C   UNL     1     147.568 168.814 187.955  0.00  0.00    -0.059 A 
ATOM     59  H   UNL     1     145.234 168.439 190.407  0.00  0.00    +0.062 HD
ATOM     60  H   UNL     1     144.076 167.271 188.583  0.00  0.00    +0.062 HD
ATOM     61  H   UNL     1     145.134 167.066 186.348  0.00  0.00    +0.062 HD
ATOM     62  H   UNL     1     147.371 168.057 185.947  0.00  0.00    +0.062 HD
ATOM     63  H   UNL     1     148.546 169.244 187.753  0.00  0.00    +0.062 HD
ENDBRANCH  50  53
ENDBRANCH  21  50
BRANCH  15  64
ATOM     64  O   UNL     1     154.323 167.569 187.084  0.00  0.00    -0.377 OA
ATOM     65  H   UNL     1     155.229 167.771 187.398  0.00  0.00    +0.211 HD
ENDBRANCH  15  64
BRANCH   6  66
ATOM     66  O   UNL     1     150.871 164.846 193.558  0.00  0.00    -0.387 OA
ATOM     67  H   UNL     1     150.079 164.287 193.474  0.00  0.00    +0.210 HD
ENDBRANCH   6  66
BRANCH  12  68
ATOM     68  O   UNL     1     150.061 165.441 188.674  0.00  0.00    -0.456 OA
BRANCH  68  69
ATOM     69  C   UNL     1     148.930 165.218 187.963  0.00  0.00    +0.305 C 
ATOM     70  O   UNL     1     147.825 164.968 188.418  0.00  0.00    -0.251 OA
BRANCH  69  71
ATOM     71  C   UNL     1     149.238 165.271 186.497  0.00  0.00    +0.033 C 
ATOM     72  H   UNL     1     149.593 166.270 186.233  0.00  0.00    +0.034 HD
ATOM     73  H   UNL     1     150.018 164.540 186.263  0.00  0.00    +0.034 HD
ATOM     74  H   UNL     1     148.347 165.014 185.918  0.00  0.00    +0.034 HD
ENDBRANCH  69  71
ENDBRANCH  68  69
ENDBRANCH  12  68
TORSDOF 10
ENDMDL
MODEL 5
REMARK VINA RESULT:      -5.9     15.726     18.822
REMARK  Name = Cytochalasin D_conf1
REMARK  10 active torsions:
REMARK  status: ('A' for Active; 'I' for Inactive)
REMARK    1  A    between atoms: C_1  and  C_2
REMARK    2  A    between atoms: C_7  and  O_37
REMARK    3  A    between atoms: C_10  and  C_36
REMARK    4  A    between atoms: C_13  and  O_21
REMARK    5  A    between atoms: C_16  and  C_19
REMARK    6  A    between atoms: C_16  and  O_20
REMARK    7  A    between atoms: O_21  and  C_22
REMARK    8  A    between atoms: C_22  and  C_24
REMARK    9  A    between atoms: C_28  and  C_29
REMARK   10  A    between atoms: C_29  and  C_30
REMARK                            x       y       z     vdW  Elec       q    Type
REMARK                         _______ _______ _______ _____ _____    ______ ____
ROOT
ATOM      1  C   UNL     1     132.847 173.405 197.624  0.00  0.00    +0.021 C 
ATOM      2  C   UNL     1     132.129 173.631 198.966  0.00  0.00    -0.025 C 
ATOM      3  C   UNL     1     132.772 174.717 199.788  0.00  0.00    -0.087 C 
ATOM      4  C   UNL     1     133.477 174.492 200.910  0.00  0.00    -0.081 C 
ATOM      5  C   UNL     1     134.141 175.587 201.746  0.00  0.00    +0.025 C 
ATOM      6  C   UNL     1     133.462 175.641 203.145  0.00  0.00    +0.084 C 
ATOM      7  C   UNL     1     134.098 176.640 204.090  0.00  0.00    -0.045 C 
ATOM      8  C   UNL     1     133.706 176.701 205.376  0.00  0.00    -0.097 C 
ATOM      9  C   UNL     1     135.180 177.504 203.470  0.00  0.00    -0.015 C 
ATOM     10  C   UNL     1     136.283 176.598 202.867  0.00  0.00    +0.002 C 
ATOM     11  C   UNL     1     135.712 175.507 201.859  0.00  0.00    +0.101 C 
ATOM     12  C   UNL     1     136.434 175.678 200.475  0.00  0.00    +0.136 C 
ATOM     13  C   UNL     1     136.332 174.497 199.530  0.00  0.00    -0.044 C 
ATOM     14  C   UNL     1     135.696 174.460 198.344  0.00  0.00    -0.046 C 
ATOM     15  C   UNL     1     135.495 173.239 197.485  0.00  0.00    +0.139 C 
ATOM     16  C   UNL     1     134.126 172.593 197.836  0.00  0.00    +0.171 C 
ATOM     17  O   UNL     1     134.082 171.441 198.285  0.00  0.00    -0.294 OA
ATOM     18  C   UNL     1     136.115 174.198 202.533  0.00  0.00    +0.224 C 
ATOM     19  O   UNL     1     135.835 173.064 202.180  0.00  0.00    -0.275 OA
ATOM     20  N   UNL     1     136.833 174.441 203.668  0.00  0.00    -0.311 N 
ATOM     21  C   UNL     1     137.079 175.820 203.945  0.00  0.00    +0.032 C 
ATOM     22  H   UNL     1     133.090 174.370 197.166  0.00  0.00    +0.038 HD
ATOM     23  H   UNL     1     132.080 172.696 199.538  0.00  0.00    +0.031 HD
ATOM     24  H   UNL     1     131.090 173.936 198.785  0.00  0.00    +0.031 HD
ATOM     25  H   UNL     1     132.645 175.737 199.428  0.00  0.00    +0.057 HD
ATOM     26  H   UNL     1     133.594 173.466 201.260  0.00  0.00    +0.057 HD
ATOM     27  H   UNL     1     133.892 176.535 201.248  0.00  0.00    +0.038 HD
ATOM     28  H   UNL     1     133.467 174.648 203.611  0.00  0.00    +0.065 HD
ATOM     29  H   UNL     1     132.914 176.052 205.743  0.00  0.00    +0.054 HD
ATOM     30  H   UNL     1     134.126 177.398 206.091  0.00  0.00    +0.054 HD
ATOM     31  H   UNL     1     134.712 178.058 202.644  0.00  0.00    +0.035 HD
ATOM     32  H   UNL     1     136.968 177.271 202.345  0.00  0.00    +0.034 HD
ATOM     33  H   UNL     1     137.506 175.834 200.631  0.00  0.00    +0.079 HD
ATOM     34  H   UNL     1     136.817 173.587 199.883  0.00  0.00    +0.061 HD
ATOM     35  H   UNL     1     135.207 175.364 197.986  0.00  0.00    +0.060 HD
ATOM     36  H   UNL     1     137.135 173.668 204.248  0.00  0.00    +0.149 HD
ATOM     37  H   UNL     1     136.660 175.989 204.942  0.00  0.00    +0.050 HD
ENDROOT
BRANCH   1  38
ATOM     38  C   UNL     1     131.950 172.639 196.651  0.00  0.00    -0.055 C 
ATOM     39  H   UNL     1     131.667 171.659 197.051  0.00  0.00    +0.024 HD
ATOM     40  H   UNL     1     132.462 172.472 195.698  0.00  0.00    +0.024 HD
ATOM     41  H   UNL     1     131.031 173.199 196.446  0.00  0.00    +0.024 HD
ENDBRANCH   1  38
BRANCH  15  42
ATOM     42  C   UNL     1     135.583 173.562 195.997  0.00  0.00    -0.025 C 
ATOM     43  H   UNL     1     134.605 173.554 195.505  0.00  0.00    +0.026 HD
ATOM     44  H   UNL     1     136.039 174.547 195.835  0.00  0.00    +0.026 HD
ATOM     45  H   UNL     1     136.221 172.834 195.481  0.00  0.00    +0.026 HD
ENDBRANCH  15  42
BRANCH   9  46
ATOM     46  C   UNL     1     135.778 178.594 204.373  0.00  0.00    -0.058 C 
ATOM     47  H   UNL     1     135.236 178.642 205.324  0.00  0.00    +0.024 HD
ATOM     48  H   UNL     1     136.826 178.370 204.607  0.00  0.00    +0.024 HD
ATOM     49  H   UNL     1     135.741 179.589 203.919  0.00  0.00    +0.024 HD
ENDBRANCH   9  46
BRANCH  21  50
ATOM     50  C   UNL     1     138.582 176.160 204.044  0.00  0.00    -0.009 C 
ATOM     51  H   UNL     1     138.909 176.011 205.081  0.00  0.00    +0.033 HD
ATOM     52  H   UNL     1     139.147 175.425 203.454  0.00  0.00    +0.033 HD
BRANCH  50  53
ATOM     53  C   UNL     1     139.006 177.531 203.575  0.00  0.00    -0.046 A 
ATOM     54  C   UNL     1     139.283 178.544 204.501  0.00  0.00    -0.059 A 
ATOM     55  C   UNL     1     139.660 179.818 204.072  0.00  0.00    -0.062 A 
ATOM     56  C   UNL     1     139.776 180.092 202.712  0.00  0.00    -0.062 A 
ATOM     57  C   UNL     1     139.522 179.090 201.780  0.00  0.00    -0.062 A 
ATOM     58  C   UNL     1     139.145 177.816 202.209  0.00  0.00    -0.059 A 
ATOM     59  H   UNL     1     139.183 178.363 205.570  0.00  0.00    +0.062 HD
ATOM     60  H   UNL     1     139.847 180.599 204.803  0.00  0.00    +0.062 HD
ATOM     61  H   UNL     1     140.061 181.086 202.379  0.00  0.00    +0.062 HD
ATOM     62  H   UNL     1     139.612 179.301 200.718  0.00  0.00    +0.062 HD
ATOM     63  H   UNL     1     138.958 177.049 201.461  0.00  0.00    +0.062 HD
ENDBRANCH  50  53
ENDBRANCH  21  50
BRANCH  15  64
ATOM     64  O   UNL     1     136.536 172.294 197.756  0.00  0.00    -0.377 OA
ATOM     65  H   UNL     1     137.323 172.624 197.274  0.00  0.00    +0.211 HD
ENDBRANCH  15  64
BRANCH   6  66
ATOM     66  O   UNL     1     132.098 176.049 202.995  0.00  0.00    -0.387 OA
ATOM     67  H   UNL     1     132.018 176.430 202.103  0.00  0.00    +0.210 HD
ENDBRANCH   6  66
BRANCH  12  68
ATOM     68  O   UNL     1     135.849 176.828 199.804  0.00  0.00    -0.456 OA
BRANCH  68  69
ATOM     69  C   UNL     1     136.641 177.875 199.469  0.00  0.00    +0.305 C 
ATOM     70  O   UNL     1     137.647 177.831 198.779  0.00  0.00    -0.251 OA
BRANCH  69  71
ATOM     71  C   UNL     1     136.128 179.123 200.121  0.00  0.00    +0.033 C 
ATOM     72  H   UNL     1     136.940 179.849 200.212  0.00  0.00    +0.034 HD
ATOM     73  H   UNL     1     135.330 179.551 199.508  0.00  0.00    +0.034 HD
ATOM     74  H   UNL     1     135.711 178.887 201.104  0.00  0.00    +0.034 HD
ENDBRANCH  69  71
ENDBRANCH  68  69
ENDBRANCH  12  68
TORSDOF 10
ENDMDL
MODEL 6
REMARK VINA RESULT:      -5.9      3.158      6.509
REMARK  Name = Cytochalasin D_conf1
REMARK  10 active torsions:
REMARK  status: ('A' for Active; 'I' for Inactive)
REMARK    1  A    between atoms: C_1  and  C_2
REMARK    2  A    between atoms: C_7  and  O_37
REMARK    3  A    between atoms: C_10  and  C_36
REMARK    4  A    between atoms: C_13  and  O_21
REMARK    5  A    between atoms: C_16  and  C_19
REMARK    6  A    between atoms: C_16  and  O_20
REMARK    7  A    between atoms: O_21  and  C_22
REMARK    8  A    between atoms: C_22  and  C_24
REMARK    9  A    between atoms: C_28  and  C_29
REMARK   10  A    between atoms: C_29  and  C_30
REMARK                            x       y       z     vdW  Elec       q    Type
REMARK                         _______ _______ _______ _____ _____    ______ ____
ROOT
ATOM      1  C   UNL     1     146.690 165.713 194.323  0.00  0.00    +0.021 C 
ATOM      2  C   UNL     1     145.197 165.880 193.993  0.00  0.00    -0.025 C 
ATOM      3  C   UNL     1     144.910 165.727 192.521  0.00  0.00    -0.087 C 
ATOM      4  C   UNL     1     144.567 166.744 191.713  0.00  0.00    -0.081 C 
ATOM      5  C   UNL     1     144.284 166.599 190.217  0.00  0.00    +0.025 C 
ATOM      6  C   UNL     1     142.791 166.941 189.947  0.00  0.00    +0.084 C 
ATOM      7  C   UNL     1     142.417 166.910 188.479  0.00  0.00    -0.045 C 
ATOM      8  C   UNL     1     141.197 167.316 188.083  0.00  0.00    -0.097 C 
ATOM      9  C   UNL     1     143.512 166.417 187.553  0.00  0.00    -0.015 C 
ATOM     10  C   UNL     1     144.778 167.292 187.738  0.00  0.00    +0.002 C 
ATOM     11  C   UNL     1     145.251 167.391 189.255  0.00  0.00    +0.101 C 
ATOM     12  C   UNL     1     146.740 166.902 189.348  0.00  0.00    +0.136 C 
ATOM     13  C   UNL     1     147.486 167.301 190.606  0.00  0.00    -0.044 C 
ATOM     14  C   UNL     1     147.947 166.483 191.570  0.00  0.00    -0.046 C 
ATOM     15  C   UNL     1     148.567 166.913 192.874  0.00  0.00    +0.139 C 
ATOM     16  C   UNL     1     147.459 166.985 193.962  0.00  0.00    +0.171 C 
ATOM     17  O   UNL     1     147.207 168.061 194.517  0.00  0.00    -0.294 OA
ATOM     18  C   UNL     1     145.143 168.887 189.533  0.00  0.00    +0.224 C 
ATOM     19  O   UNL     1     145.327 169.461 190.595  0.00  0.00    -0.275 OA
ATOM     20  N   UNL     1     144.755 169.560 188.411  0.00  0.00    -0.311 N 
ATOM     21  C   UNL     1     144.581 168.748 187.248  0.00  0.00    +0.032 C 
ATOM     22  H   UNL     1     147.099 164.861 193.769  0.00  0.00    +0.038 HD
ATOM     23  H   UNL     1     144.829 166.849 194.355  0.00  0.00    +0.031 HD
ATOM     24  H   UNL     1     144.612 165.114 194.517  0.00  0.00    +0.031 HD
ATOM     25  H   UNL     1     144.995 164.720 192.114  0.00  0.00    +0.057 HD
ATOM     26  H   UNL     1     144.484 167.746 192.135  0.00  0.00    +0.057 HD
ATOM     27  H   UNL     1     144.398 165.528 189.995  0.00  0.00    +0.038 HD
ATOM     28  H   UNL     1     142.543 167.926 190.363  0.00  0.00    +0.065 HD
ATOM     29  H   UNL     1     140.461 167.648 188.811  0.00  0.00    +0.054 HD
ATOM     30  H   UNL     1     140.878 167.311 187.046  0.00  0.00    +0.054 HD
ATOM     31  H   UNL     1     143.762 165.395 187.869  0.00  0.00    +0.035 HD
ATOM     32  H   UNL     1     145.556 166.820 187.132  0.00  0.00    +0.034 HD
ATOM     33  H   UNL     1     147.321 167.320 188.521  0.00  0.00    +0.079 HD
ATOM     34  H   UNL     1     147.633 168.375 190.727  0.00  0.00    +0.061 HD
ATOM     35  H   UNL     1     147.801 165.411 191.457  0.00  0.00    +0.060 HD
ATOM     36  H   UNL     1     144.599 170.560 188.451  0.00  0.00    +0.149 HD
ATOM     37  H   UNL     1     143.547 168.920 186.933  0.00  0.00    +0.050 HD
ENDROOT
BRANCH   1  38
ATOM     38  C   UNL     1     146.889 165.441 195.814  0.00  0.00    -0.055 C 
ATOM     39  H   UNL     1     147.700 164.725 195.988  0.00  0.00    +0.024 HD
ATOM     40  H   UNL     1     145.979 165.026 196.259  0.00  0.00    +0.024 HD
ATOM     41  H   UNL     1     147.134 166.365 196.348  0.00  0.00    +0.024 HD
ENDBRANCH   1  38
BRANCH  15  42
ATOM     42  C   UNL     1     149.699 165.985 193.306  0.00  0.00    -0.025 C 
ATOM     43  H   UNL     1     150.146 166.281 194.261  0.00  0.00    +0.026 HD
ATOM     44  H   UNL     1     149.345 164.951 193.401  0.00  0.00    +0.026 HD
ATOM     45  H   UNL     1     150.497 165.974 192.554  0.00  0.00    +0.026 HD
ENDBRANCH  15  42
BRANCH   9  46
ATOM     46  C   UNL     1     143.136 166.281 186.070  0.00  0.00    -0.058 C 
ATOM     47  H   UNL     1     143.826 165.599 185.562  0.00  0.00    +0.024 HD
ATOM     48  H   UNL     1     142.128 165.862 185.963  0.00  0.00    +0.024 HD
ATOM     49  H   UNL     1     143.160 167.236 185.536  0.00  0.00    +0.024 HD
ENDBRANCH   9  46
BRANCH  21  50
ATOM     50  C   UNL     1     145.474 169.183 186.066  0.00  0.00    -0.009 C 
ATOM     51  H   UNL     1     144.866 169.196 185.152  0.00  0.00    +0.033 HD
ATOM     52  H   UNL     1     145.780 170.226 186.224  0.00  0.00    +0.033 HD
BRANCH  50  53
ATOM     53  C   UNL     1     146.729 168.380 185.823  0.00  0.00    -0.046 A 
ATOM     54  C   UNL     1     146.720 167.301 184.931  0.00  0.00    -0.059 A 
ATOM     55  C   UNL     1     147.874 166.546 184.715  0.00  0.00    -0.062 A 
ATOM     56  C   UNL     1     149.054 166.866 185.381  0.00  0.00    -0.062 A 
ATOM     57  C   UNL     1     149.082 167.947 186.257  0.00  0.00    -0.062 A 
ATOM     58  C   UNL     1     147.929 168.703 186.473  0.00  0.00    -0.059 A 
ATOM     59  H   UNL     1     145.807 167.018 184.410  0.00  0.00    +0.062 HD
ATOM     60  H   UNL     1     147.843 165.698 184.037  0.00  0.00    +0.062 HD
ATOM     61  H   UNL     1     149.949 166.272 185.218  0.00  0.00    +0.062 HD
ATOM     62  H   UNL     1     150.002 168.199 186.778  0.00  0.00    +0.062 HD
ATOM     63  H   UNL     1     147.979 169.545 187.158  0.00  0.00    +0.062 HD
ENDBRANCH  50  53
ENDBRANCH  21  50
BRANCH  15  64
ATOM     64  O   UNL     1     149.147 168.211 192.717  0.00  0.00    -0.377 OA
ATOM     65  H   UNL     1     149.434 168.260 191.781  0.00  0.00    +0.211 HD
ENDBRANCH  15  64
BRANCH   6  66
ATOM     66  O   UNL     1     141.957 165.970 190.590  0.00  0.00    -0.387 OA
ATOM     67  H   UNL     1     141.473 165.508 189.885  0.00  0.00    +0.210 HD
ENDBRANCH   6  66
BRANCH  12  68
ATOM     68  O   UNL     1     146.740 165.449 189.282  0.00  0.00    -0.456 OA
BRANCH  68  69
ATOM     69  C   UNL     1     147.472 164.828 188.325  0.00  0.00    +0.305 C 
ATOM     70  O   UNL     1     148.689 164.832 188.228  0.00  0.00    -0.251 OA
BRANCH  69  71
ATOM     71  C   UNL     1     146.556 164.158 187.346  0.00  0.00    +0.033 C 
ATOM     72  H   UNL     1     146.980 164.228 186.342  0.00  0.00    +0.034 HD
ATOM     73  H   UNL     1     146.445 163.104 187.617  0.00  0.00    +0.034 HD
ATOM     74  H   UNL     1     145.567 164.624 187.381  0.00  0.00    +0.034 HD
ENDBRANCH  69  71
ENDBRANCH  68  69
ENDBRANCH  12  68
TORSDOF 10
ENDMDL
MODEL 7
REMARK VINA RESULT:      -5.9      2.152      7.576
REMARK  Name = Cytochalasin D_conf1
REMARK  10 active torsions:
REMARK  status: ('A' for Active; 'I' for Inactive)
REMARK    1  A    between atoms: C_1  and  C_2
REMARK    2  A    between atoms: C_7  and  O_37
REMARK    3  A    between atoms: C_10  and  C_36
REMARK    4  A    between atoms: C_13  and  O_21
REMARK    5  A    between atoms: C_16  and  C_19
REMARK    6  A    between atoms: C_16  and  O_20
REMARK    7  A    between atoms: O_21  and  C_22
REMARK    8  A    between atoms: C_22  and  C_24
REMARK    9  A    between atoms: C_28  and  C_29
REMARK   10  A    between atoms: C_29  and  C_30
REMARK                            x       y       z     vdW  Elec       q    Type
REMARK                         _______ _______ _______ _____ _____    ______ ____
ROOT
ATOM      1  C   UNL     1     151.553 166.633 187.392  0.00  0.00    +0.021 C 
ATOM      2  C   UNL     1     150.280 166.546 186.532  0.00  0.00    -0.025 C 
ATOM      3  C   UNL     1     149.121 167.296 187.138  0.00  0.00    -0.087 C 
ATOM      4  C   UNL     1     148.047 166.702 187.686  0.00  0.00    -0.081 C 
ATOM      5  C   UNL     1     146.872 167.455 188.311  0.00  0.00    +0.025 C 
ATOM      6  C   UNL     1     145.590 167.185 187.472  0.00  0.00    +0.084 C 
ATOM      7  C   UNL     1     144.341 167.818 188.050  0.00  0.00    -0.045 C 
ATOM      8  C   UNL     1     143.137 167.557 187.509  0.00  0.00    -0.097 C 
ATOM      9  C   UNL     1     144.578 168.712 189.252  0.00  0.00    -0.015 C 
ATOM     10  C   UNL     1     145.302 167.908 190.361  0.00  0.00    +0.002 C 
ATOM     11  C   UNL     1     146.632 167.197 189.848  0.00  0.00    +0.101 C 
ATOM     12  C   UNL     1     147.830 167.675 190.742  0.00  0.00    +0.136 C 
ATOM     13  C   UNL     1     149.079 166.818 190.682  0.00  0.00    -0.044 C 
ATOM     14  C   UNL     1     150.283 167.171 190.194  0.00  0.00    -0.046 C 
ATOM     15  C   UNL     1     151.471 166.260 190.021  0.00  0.00    +0.139 C 
ATOM     16  C   UNL     1     151.456 165.676 188.582  0.00  0.00    +0.171 C 
ATOM     17  O   UNL     1     151.361 164.454 188.410  0.00  0.00    -0.294 OA
ATOM     18  C   UNL     1     146.323 165.721 190.082  0.00  0.00    +0.224 C 
ATOM     19  O   UNL     1     147.012 164.761 189.776  0.00  0.00    -0.275 OA
ATOM     20  N   UNL     1     145.101 165.571 190.671  0.00  0.00    -0.311 N 
ATOM     21  C   UNL     1     144.419 166.790 190.968  0.00  0.00    +0.032 C 
ATOM     22  H   UNL     1     151.689 167.659 187.750  0.00  0.00    +0.038 HD
ATOM     23  H   UNL     1     150.006 165.498 186.355  0.00  0.00    +0.031 HD
ATOM     24  H   UNL     1     150.468 166.986 185.545  0.00  0.00    +0.031 HD
ATOM     25  H   UNL     1     149.186 168.383 187.121  0.00  0.00    +0.057 HD
ATOM     26  H   UNL     1     147.995 165.613 187.694  0.00  0.00    +0.057 HD
ATOM     27  H   UNL     1     147.101 168.523 188.185  0.00  0.00    +0.038 HD
ATOM     28  H   UNL     1     145.429 166.105 187.357  0.00  0.00    +0.065 HD
ATOM     29  H   UNL     1     143.050 166.911 186.639  0.00  0.00    +0.054 HD
ATOM     30  H   UNL     1     142.214 167.986 187.882  0.00  0.00    +0.054 HD
ATOM     31  H   UNL     1     145.254 169.515 188.924  0.00  0.00    +0.035 HD
ATOM     32  H   UNL     1     145.541 168.631 191.145  0.00  0.00    +0.034 HD
ATOM     33  H   UNL     1     147.532 167.679 191.795  0.00  0.00    +0.079 HD
ATOM     34  H   UNL     1     148.955 165.803 191.061  0.00  0.00    +0.061 HD
ATOM     35  H   UNL     1     150.414 168.181 189.810  0.00  0.00    +0.060 HD
ATOM     36  H   UNL     1     144.739 164.642 190.850  0.00  0.00    +0.149 HD
ATOM     37  H   UNL     1     143.461 166.715 190.442  0.00  0.00    +0.050 HD
ENDROOT
BRANCH   1  38
ATOM     38  C   UNL     1     152.787 166.255 186.574  0.00  0.00    -0.055 C 
ATOM     39  H   UNL     1     152.764 166.710 185.577  0.00  0.00    +0.024 HD
ATOM     40  H   UNL     1     152.850 165.170 186.441  0.00  0.00    +0.024 HD
ATOM     41  H   UNL     1     153.703 166.586 187.076  0.00  0.00    +0.024 HD
ENDBRANCH   1  38
BRANCH  15  42
ATOM     42  C   UNL     1     152.788 166.972 190.311  0.00  0.00    -0.025 C 
ATOM     43  H   UNL     1     153.386 167.135 189.408  0.00  0.00    +0.026 HD
ATOM     44  H   UNL     1     152.613 167.947 190.783  0.00  0.00    +0.026 HD
ATOM     45  H   UNL     1     153.396 166.390 191.013  0.00  0.00    +0.026 HD
ENDBRANCH  15  42
BRANCH   9  46
ATOM     46  C   UNL     1     143.347 169.447 189.804  0.00  0.00    -0.058 C 
ATOM     47  H   UNL     1     142.574 168.729 190.099  0.00  0.00    +0.024 HD
ATOM     48  H   UNL     1     143.610 170.027 190.696  0.00  0.00    +0.024 HD
ATOM     49  H   UNL     1     142.901 170.134 189.077  0.00  0.00    +0.024 HD
ENDBRANCH   9  46
BRANCH  21  50
ATOM     50  C   UNL     1     144.079 166.944 192.467  0.00  0.00    -0.009 C 
ATOM     51  H   UNL     1     143.841 167.997 192.667  0.00  0.00    +0.033 HD
ATOM     52  H   UNL     1     143.152 166.393 192.674  0.00  0.00    +0.033 HD
BRANCH  50  53
ATOM     53  C   UNL     1     145.114 166.467 193.456  0.00  0.00    -0.046 A 
ATOM     54  C   UNL     1     144.860 165.354 194.268  0.00  0.00    -0.059 A 
ATOM     55  C   UNL     1     145.807 164.918 195.195  0.00  0.00    -0.062 A 
ATOM     56  C   UNL     1     147.025 165.582 195.317  0.00  0.00    -0.062 A 
ATOM     57  C   UNL     1     147.298 166.679 194.505  0.00  0.00    -0.062 A 
ATOM     58  C   UNL     1     146.352 167.115 193.576  0.00  0.00    -0.059 A 
ATOM     59  H   UNL     1     143.909 164.826 194.206  0.00  0.00    +0.062 HD
ATOM     60  H   UNL     1     145.584 164.067 195.834  0.00  0.00    +0.062 HD
ATOM     61  H   UNL     1     147.757 165.247 196.046  0.00  0.00    +0.062 HD
ATOM     62  H   UNL     1     148.248 167.198 194.597  0.00  0.00    +0.062 HD
ATOM     63  H   UNL     1     146.592 167.970 192.950  0.00  0.00    +0.062 HD
ENDBRANCH  50  53
ENDBRANCH  21  50
BRANCH  15  64
ATOM     64  O   UNL     1     151.380 165.183 190.959  0.00  0.00    -0.377 OA
ATOM     65  H   UNL     1     151.158 165.599 191.818  0.00  0.00    +0.211 HD
ENDBRANCH  15  64
BRANCH   6  66
ATOM     66  O   UNL     1     145.751 167.746 186.164  0.00  0.00    -0.387 OA
ATOM     67  H   UNL     1     145.599 167.024 185.531  0.00  0.00    +0.210 HD
ENDBRANCH   6  66
BRANCH  12  68
ATOM     68  O   UNL     1     148.200 169.016 190.318  0.00  0.00    -0.456 OA
BRANCH  68  69
ATOM     69  C   UNL     1     148.021 170.055 191.170  0.00  0.00    +0.305 C 
ATOM     70  O   UNL     1     147.037 170.775 191.237  0.00  0.00    -0.251 OA
BRANCH  69  71
ATOM     71  C   UNL     1     149.250 170.237 192.008  0.00  0.00    +0.033 C 
ATOM     72  H   UNL     1     148.970 170.629 192.988  0.00  0.00    +0.034 HD
ATOM     73  H   UNL     1     149.747 169.271 192.136  0.00  0.00    +0.034 HD
ATOM     74  H   UNL     1     149.947 170.914 191.507  0.00  0.00    +0.034 HD
ENDBRANCH  69  71
ENDBRANCH  68  69
ENDBRANCH  12  68
TORSDOF 10
ENDMDL
MODEL 8
REMARK VINA RESULT:      -5.9      2.065      2.893
REMARK  Name = Cytochalasin D_conf1
REMARK  10 active torsions:
REMARK  status: ('A' for Active; 'I' for Inactive)
REMARK    1  A    between atoms: C_1  and  C_2
REMARK    2  A    between atoms: C_7  and  O_37
REMARK    3  A    between atoms: C_10  and  C_36
REMARK    4  A    between atoms: C_13  and  O_21
REMARK    5  A    between atoms: C_16  and  C_19
REMARK    6  A    between atoms: C_16  and  O_20
REMARK    7  A    between atoms: O_21  and  C_22
REMARK    8  A    between atoms: C_22  and  C_24
REMARK    9  A    between atoms: C_28  and  C_29
REMARK   10  A    between atoms: C_29  and  C_30
REMARK                            x       y       z     vdW  Elec       q    Type
REMARK                         _______ _______ _______ _____ _____    ______ ____
ROOT
ATOM      1  C   UNL     1     143.106 166.874 193.019  0.00  0.00    +0.021 C 
ATOM      2  C   UNL     1     144.306 166.133 193.635  0.00  0.00    -0.025 C 
ATOM      3  C   UNL     1     145.626 166.742 193.239  0.00  0.00    -0.087 C 
ATOM      4  C   UNL     1     146.496 166.165 192.393  0.00  0.00    -0.081 C 
ATOM      5  C   UNL     1     147.833 166.781 191.978  0.00  0.00    +0.025 C 
ATOM      6  C   UNL     1     148.990 165.884 192.505  0.00  0.00    +0.084 C 
ATOM      7  C   UNL     1     150.365 166.357 192.079  0.00  0.00    -0.045 C 
ATOM      8  C   UNL     1     151.451 165.606 192.345  0.00  0.00    -0.097 C 
ATOM      9  C   UNL     1     150.385 167.683 191.346  0.00  0.00    -0.015 C 
ATOM     10  C   UNL     1     149.467 167.599 190.100  0.00  0.00    +0.002 C 
ATOM     11  C   UNL     1     147.993 167.105 190.443  0.00  0.00    +0.101 C 
ATOM     12  C   UNL     1     146.973 168.185 189.937  0.00  0.00    +0.136 C 
ATOM     13  C   UNL     1     145.536 167.721 189.801  0.00  0.00    -0.044 C 
ATOM     14  C   UNL     1     144.476 168.143 190.516  0.00  0.00    -0.046 C 
ATOM     15  C   UNL     1     143.083 167.571 190.455  0.00  0.00    +0.139 C 
ATOM     16  C   UNL     1     142.936 166.479 191.551  0.00  0.00    +0.171 C 
ATOM     17  O   UNL     1     142.690 165.310 191.230  0.00  0.00    -0.294 OA
ATOM     18  C   UNL     1     147.883 165.818 189.630  0.00  0.00    +0.224 C 
ATOM     19  O   UNL     1     146.956 165.024 189.619  0.00  0.00    -0.275 OA
ATOM     20  N   UNL     1     149.016 165.611 188.899  0.00  0.00    -0.311 N 
ATOM     21  C   UNL     1     150.008 166.632 189.018  0.00  0.00    +0.032 C 
ATOM     22  H   UNL     1     143.258 167.955 193.098  0.00  0.00    +0.038 HD
ATOM     23  H   UNL     1     144.280 165.069 193.367  0.00  0.00    +0.031 HD
ATOM     24  H   UNL     1     144.246 166.175 194.730  0.00  0.00    +0.031 HD
ATOM     25  H   UNL     1     145.863 167.710 193.679  0.00  0.00    +0.057 HD
ATOM     26  H   UNL     1     146.245 165.195 191.962  0.00  0.00    +0.057 HD
ATOM     27  H   UNL     1     147.907 167.730 192.528  0.00  0.00    +0.038 HD
ATOM     28  H   UNL     1     148.847 164.845 192.179  0.00  0.00    +0.065 HD
ATOM     29  H   UNL     1     151.356 164.668 192.886  0.00  0.00    +0.054 HD
ATOM     30  H   UNL     1     152.457 165.900 192.065  0.00  0.00    +0.054 HD
ATOM     31  H   UNL     1     149.956 168.432 192.027  0.00  0.00    +0.035 HD
ATOM     32  H   UNL     1     149.437 168.609 189.683  0.00  0.00    +0.034 HD
ATOM     33  H   UNL     1     147.261 168.532 188.940  0.00  0.00    +0.079 HD
ATOM     34  H   UNL     1     145.376 166.946 189.051  0.00  0.00    +0.061 HD
ATOM     35  H   UNL     1     144.628 168.913 191.268  0.00  0.00    +0.060 HD
ATOM     36  H   UNL     1     149.109 164.772 188.339  0.00  0.00    +0.149 HD
ATOM     37  H   UNL     1     150.908 166.114 189.367  0.00  0.00    +0.050 HD
ENDROOT
BRANCH   1  38
ATOM     38  C   UNL     1     141.815 166.527 193.760  0.00  0.00    -0.055 C 
ATOM     39  H   UNL     1     141.483 167.353 194.398  0.00  0.00    +0.024 HD
ATOM     40  H   UNL     1     141.957 165.650 194.400  0.00  0.00    +0.024 HD
ATOM     41  H   UNL     1     141.010 166.301 193.053  0.00  0.00    +0.024 HD
ENDBRANCH   1  38
BRANCH  15  42
ATOM     42  C   UNL     1     142.013 168.648 190.607  0.00  0.00    -0.025 C 
ATOM     43  H   UNL     1     141.065 168.369 190.133  0.00  0.00    +0.026 HD
ATOM     44  H   UNL     1     141.817 168.861 191.664  0.00  0.00    +0.026 HD
ATOM     45  H   UNL     1     142.347 169.590 190.155  0.00  0.00    +0.026 HD
ENDBRANCH  15  42
BRANCH   9  46
ATOM     46  C   UNL     1     151.771 168.240 190.986  0.00  0.00    -0.058 C 
ATOM     47  H   UNL     1     152.547 167.741 191.576  0.00  0.00    +0.024 HD
ATOM     48  H   UNL     1     151.999 168.058 189.929  0.00  0.00    +0.024 HD
ATOM     49  H   UNL     1     151.856 169.316 191.167  0.00  0.00    +0.024 HD
ENDBRANCH   9  46
BRANCH  21  50
ATOM     50  C   UNL     1     150.378 167.279 187.665  0.00  0.00    -0.009 C 
ATOM     51  H   UNL     1     150.760 168.290 187.852  0.00  0.00    +0.033 HD
ATOM     52  H   UNL     1     151.223 166.726 187.232  0.00  0.00    +0.033 HD
BRANCH  50  53
ATOM     53  C   UNL     1     149.296 167.336 186.615  0.00  0.00    -0.046 A 
ATOM     54  C   UNL     1     148.387 168.401 186.589  0.00  0.00    -0.059 A 
ATOM     55  C   UNL     1     147.375 168.451 185.629  0.00  0.00    -0.062 A 
ATOM     56  C   UNL     1     147.263 167.441 184.677  0.00  0.00    -0.062 A 
ATOM     57  C   UNL     1     148.170 166.385 184.680  0.00  0.00    -0.062 A 
ATOM     58  C   UNL     1     149.183 166.335 185.639  0.00  0.00    -0.059 A 
ATOM     59  H   UNL     1     148.440 169.196 187.332  0.00  0.00    +0.062 HD
ATOM     60  H   UNL     1     146.664 169.273 185.638  0.00  0.00    +0.062 HD
ATOM     61  H   UNL     1     146.469 167.476 183.937  0.00  0.00    +0.062 HD
ATOM     62  H   UNL     1     148.085 165.596 183.938  0.00  0.00    +0.062 HD
ATOM     63  H   UNL     1     149.881 165.503 185.616  0.00  0.00    +0.062 HD
ENDBRANCH  50  53
ENDBRANCH  21  50
BRANCH  15  64
ATOM     64  O   UNL     1     142.874 166.972 189.172  0.00  0.00    -0.377 OA
ATOM     65  H   UNL     1     142.532 167.689 188.599  0.00  0.00    +0.211 HD
ENDBRANCH  15  64
BRANCH   6  66
ATOM     66  O   UNL     1     148.989 165.899 193.936  0.00  0.00    -0.387 OA
ATOM     67  H   UNL     1     148.133 166.272 194.210  0.00  0.00    +0.210 HD
ENDBRANCH   6  66
BRANCH  12  68
ATOM     68  O   UNL     1     146.987 169.293 190.880  0.00  0.00    -0.456 OA
BRANCH  68  69
ATOM     69  C   UNL     1     147.409 170.512 190.466  0.00  0.00    +0.305 C 
ATOM     70  O   UNL     1     148.273 171.196 190.992  0.00  0.00    -0.251 OA
BRANCH  69  71
ATOM     71  C   UNL     1     146.615 170.940 189.270  0.00  0.00    +0.033 C 
ATOM     72  H   UNL     1     146.122 170.072 188.827  0.00  0.00    +0.034 HD
ATOM     73  H   UNL     1     145.856 171.665 189.580  0.00  0.00    +0.034 HD
ATOM     74  H   UNL     1     147.270 171.425 188.541  0.00  0.00    +0.034 HD
ENDBRANCH  69  71
ENDBRANCH  68  69
ENDBRANCH  12  68
TORSDOF 10
ENDMDL
MODEL 9
REMARK VINA RESULT:      -5.9      4.210      8.106
REMARK  Name = Cytochalasin D_conf1
REMARK  10 active torsions:
REMARK  status: ('A' for Active; 'I' for Inactive)
REMARK    1  A    between atoms: C_1  and  C_2
REMARK    2  A    between atoms: C_7  and  O_37
REMARK    3  A    between atoms: C_10  and  C_36
REMARK    4  A    between atoms: C_13  and  O_21
REMARK    5  A    between atoms: C_16  and  C_19
REMARK    6  A    between atoms: C_16  and  O_20
REMARK    7  A    between atoms: O_21  and  C_22
REMARK    8  A    between atoms: C_22  and  C_24
REMARK    9  A    between atoms: C_28  and  C_29
REMARK   10  A    between atoms: C_29  and  C_30
REMARK                            x       y       z     vdW  Elec       q    Type
REMARK                         _______ _______ _______ _____ _____    ______ ____
ROOT
ATOM      1  C   UNL     1     150.183 166.644 191.719  0.00  0.00    +0.021 C 
ATOM      2  C   UNL     1     149.806 166.842 190.240  0.00  0.00    -0.025 C 
ATOM      3  C   UNL     1     150.478 165.843 189.334  0.00  0.00    -0.087 C 
ATOM      4  C   UNL     1     151.470 166.151 188.481  0.00  0.00    -0.081 C 
ATOM      5  C   UNL     1     152.164 165.142 187.565  0.00  0.00    +0.025 C 
ATOM      6  C   UNL     1     151.863 165.509 186.084  0.00  0.00    +0.084 C 
ATOM      7  C   UNL     1     152.572 164.620 185.082  0.00  0.00    -0.045 C 
ATOM      8  C   UNL     1     152.515 164.902 183.767  0.00  0.00    -0.097 C 
ATOM      9  C   UNL     1     153.327 163.453 185.688  0.00  0.00    -0.015 C 
ATOM     10  C   UNL     1     154.357 163.983 186.718  0.00  0.00    +0.002 C 
ATOM     11  C   UNL     1     153.707 164.935 187.816  0.00  0.00    +0.101 C 
ATOM     12  C   UNL     1     154.021 164.346 189.237  0.00  0.00    +0.136 C 
ATOM     13  C   UNL     1     153.849 165.305 190.399  0.00  0.00    -0.044 C 
ATOM     14  C   UNL     1     152.944 165.222 191.392  0.00  0.00    -0.046 C 
ATOM     15  C   UNL     1     152.704 166.257 192.461  0.00  0.00    +0.139 C 
ATOM     16  C   UNL     1     151.575 167.216 191.993  0.00  0.00    +0.171 C 
ATOM     17  O   UNL     1     151.809 168.421 191.842  0.00  0.00    -0.294 OA
ATOM     18  C   UNL     1     154.448 166.249 187.587  0.00  0.00    +0.224 C 
ATOM     19  O   UNL     1     154.250 167.319 188.140  0.00  0.00    -0.275 OA
ATOM     20  N   UNL     1     155.390 166.108 186.610  0.00  0.00    -0.311 N 
ATOM     21  C   UNL     1     155.502 164.794 186.062  0.00  0.00    +0.032 C 
ATOM     22  H   UNL     1     150.164 165.577 191.966  0.00  0.00    +0.038 HD
ATOM     23  H   UNL     1     150.037 167.865 189.918  0.00  0.00    +0.031 HD
ATOM     24  H   UNL     1     148.723 166.716 190.112  0.00  0.00    +0.031 HD
ATOM     25  H   UNL     1     150.121 164.816 189.396  0.00  0.00    +0.057 HD
ATOM     26  H   UNL     1     151.816 167.184 188.428  0.00  0.00    +0.057 HD
ATOM     27  H   UNL     1     151.665 164.179 187.749  0.00  0.00    +0.038 HD
ATOM     28  H   UNL     1     152.126 166.557 185.888  0.00  0.00    +0.065 HD
ATOM     29  H   UNL     1     151.943 165.755 183.409  0.00  0.00    +0.054 HD
ATOM     30  H   UNL     1     153.001 164.298 183.010  0.00  0.00    +0.054 HD
ATOM     31  H   UNL     1     152.591 162.844 186.232  0.00  0.00    +0.035 HD
ATOM     32  H   UNL     1     154.784 163.096 187.194  0.00  0.00    +0.034 HD
ATOM     33  H   UNL     1     155.064 164.019 189.283  0.00  0.00    +0.079 HD
ATOM     34  H   UNL     1     154.531 166.155 190.394  0.00  0.00    +0.061 HD
ATOM     35  H   UNL     1     152.258 164.378 191.403  0.00  0.00    +0.060 HD
ATOM     36  H   UNL     1     155.936 166.910 186.317  0.00  0.00    +0.149 HD
ATOM     37  H   UNL     1     155.331 164.918 184.988  0.00  0.00    +0.050 HD
ENDROOT
BRANCH   1  38
ATOM     38  C   UNL     1     149.185 167.355 192.633  0.00  0.00    -0.055 C 
ATOM     39  H   UNL     1     149.294 168.443 192.579  0.00  0.00    +0.024 HD
ATOM     40  H   UNL     1     149.333 167.058 193.677  0.00  0.00    +0.024 HD
ATOM     41  H   UNL     1     148.156 167.104 192.354  0.00  0.00    +0.024 HD
ENDBRANCH   1  38
BRANCH  15  42
ATOM     42  C   UNL     1     152.365 165.625 193.807  0.00  0.00    -0.025 C 
ATOM     43  H   UNL     1     152.332 164.531 193.763  0.00  0.00    +0.026 HD
ATOM     44  H   UNL     1     153.095 165.914 194.573  0.00  0.00    +0.026 HD
ATOM     45  H   UNL     1     151.387 165.973 194.161  0.00  0.00    +0.026 HD
ENDBRANCH  15  42
BRANCH   9  46
ATOM     46  C   UNL     1     153.976 162.476 184.696  0.00  0.00    -0.058 C 
ATOM     47  H   UNL     1     154.369 161.601 185.224  0.00  0.00    +0.024 HD
ATOM     48  H   UNL     1     153.238 162.114 183.970  0.00  0.00    +0.024 HD
ATOM     49  H   UNL     1     154.803 162.926 184.137  0.00  0.00    +0.024 HD
ENDBRANCH   9  46
BRANCH  21  50
ATOM     50  C   UNL     1     156.917 164.194 186.209  0.00  0.00    -0.009 C 
ATOM     51  H   UNL     1     157.062 163.438 185.427  0.00  0.00    +0.033 HD
ATOM     52  H   UNL     1     157.654 164.979 185.993  0.00  0.00    +0.033 HD
BRANCH  50  53
ATOM     53  C   UNL     1     157.274 163.603 187.552  0.00  0.00    -0.046 A 
ATOM     54  C   UNL     1     157.357 164.418 188.687  0.00  0.00    -0.059 A 
ATOM     55  C   UNL     1     157.702 163.879 189.927  0.00  0.00    -0.062 A 
ATOM     56  C   UNL     1     157.960 162.517 190.051  0.00  0.00    -0.062 A 
ATOM     57  C   UNL     1     157.865 161.691 188.934  0.00  0.00    -0.062 A 
ATOM     58  C   UNL     1     157.519 162.229 187.694  0.00  0.00    -0.059 A 
ATOM     59  H   UNL     1     157.178 165.490 188.617  0.00  0.00    +0.062 HD
ATOM     60  H   UNL     1     157.785 164.530 190.793  0.00  0.00    +0.062 HD
ATOM     61  H   UNL     1     158.237 162.100 191.015  0.00  0.00    +0.062 HD
ATOM     62  H   UNL     1     158.065 160.627 189.028  0.00  0.00    +0.062 HD
ATOM     63  H   UNL     1     157.445 161.562 186.839  0.00  0.00    +0.062 HD
ENDBRANCH  50  53
ENDBRANCH  21  50
BRANCH  15  64
ATOM     64  O   UNL     1     153.902 167.014 192.661  0.00  0.00    -0.377 OA
ATOM     65  H   UNL     1     154.616 166.497 192.234  0.00  0.00    +0.211 HD
ENDBRANCH  15  64
BRANCH   6  66
ATOM     66  O   UNL     1     150.462 165.354 185.831  0.00  0.00    -0.387 OA
ATOM     67  H   UNL     1     150.353 164.498 185.382  0.00  0.00    +0.210 HD
ENDBRANCH   6  66
BRANCH  12  68
ATOM     68  O   UNL     1     153.129 163.220 189.463  0.00  0.00    -0.456 OA
BRANCH  68  69
ATOM     69  C   UNL     1     153.574 161.963 189.226  0.00  0.00    +0.305 C 
ATOM     70  O   UNL     1     154.646 161.495 189.576  0.00  0.00    -0.251 OA
BRANCH  69  71
ATOM     71  C   UNL     1     152.563 161.217 188.408  0.00  0.00    +0.033 C 
ATOM     72  H   UNL     1     152.659 161.503 187.358  0.00  0.00    +0.034 HD
ATOM     73  H   UNL     1     152.739 160.142 188.505  0.00  0.00    +0.034 HD
ATOM     74  H   UNL     1     151.555 161.431 188.774  0.00  0.00    +0.034 HD
ENDBRANCH  69  71
ENDBRANCH  68  69
ENDBRANCH  12  68
TORSDOF 10
ENDMDL
MODEL 10
REMARK VINA RESULT:      -5.7      2.307      7.892
REMARK  Name = Cytochalasin D_conf1
REMARK  10 active torsions:
REMARK  status: ('A' for Active; 'I' for Inactive)
REMARK    1  A    between atoms: C_1  and  C_2
REMARK    2  A    between atoms: C_7  and  O_37
REMARK    3  A    between atoms: C_10  and  C_36
REMARK    4  A    between atoms: C_13  and  O_21
REMARK    5  A    between atoms: C_16  and  C_19
REMARK    6  A    between atoms: C_16  and  O_20
REMARK    7  A    between atoms: O_21  and  C_22
REMARK    8  A    between atoms: C_22  and  C_24
REMARK    9  A    between atoms: C_28  and  C_29
REMARK   10  A    between atoms: C_29  and  C_30
REMARK                            x       y       z     vdW  Elec       q    Type
REMARK                         _______ _______ _______ _____ _____    ______ ____
ROOT
ATOM      1  C   UNL     1     151.834 166.151 192.905  0.00  0.00    +0.021 C 
ATOM      2  C   UNL     1     150.613 166.141 193.841  0.00  0.00    -0.025 C 
ATOM      3  C   UNL     1     149.330 165.837 193.112  0.00  0.00    -0.087 C 
ATOM      4  C   UNL     1     148.366 166.743 192.878  0.00  0.00    -0.081 C 
ATOM      5  C   UNL     1     147.065 166.445 192.130  0.00  0.00    +0.025 C 
ATOM      6  C   UNL     1     145.867 166.614 193.109  0.00  0.00    +0.084 C 
ATOM      7  C   UNL     1     144.515 166.423 192.452  0.00  0.00    -0.045 C 
ATOM      8  C   UNL     1     143.386 166.671 193.141  0.00  0.00    -0.097 C 
ATOM      9  C   UNL     1     144.568 165.965 191.007  0.00  0.00    -0.015 C 
ATOM     10  C   UNL     1     145.402 166.973 190.175  0.00  0.00    +0.002 C 
ATOM     11  C   UNL     1     146.845 167.246 190.790  0.00  0.00    +0.101 C 
ATOM     12  C   UNL     1     147.923 166.917 189.698  0.00  0.00    +0.136 C 
ATOM     13  C   UNL     1     149.304 167.492 189.943  0.00  0.00    -0.044 C 
ATOM     14  C   UNL     1     150.436 166.808 190.191  0.00  0.00    -0.046 C 
ATOM     15  C   UNL     1     151.769 167.405 190.563  0.00  0.00    +0.139 C 
ATOM     16  C   UNL     1     151.884 167.458 192.112  0.00  0.00    +0.171 C 
ATOM     17  O   UNL     1     152.009 168.547 192.686  0.00  0.00    -0.294 OA
ATOM     18  C   UNL     1     146.796 168.742 191.084  0.00  0.00    +0.224 C 
ATOM     19  O   UNL     1     147.648 169.418 191.637  0.00  0.00    -0.275 OA
ATOM     20  N   UNL     1     145.608 169.276 190.675  0.00  0.00    -0.311 N 
ATOM     21  C   UNL     1     144.717 168.356 190.044  0.00  0.00    +0.032 C 
ATOM     22  H   UNL     1     151.781 165.301 192.217  0.00  0.00    +0.038 HD
ATOM     23  H   UNL     1     150.531 167.095 194.377  0.00  0.00    +0.031 HD
ATOM     24  H   UNL     1     150.739 165.367 194.608  0.00  0.00    +0.031 HD
ATOM     25  H   UNL     1     149.202 164.813 192.763  0.00  0.00    +0.057 HD
ATOM     26  H   UNL     1     148.506 167.764 193.235  0.00  0.00    +0.057 HD
ATOM     27  H   UNL     1     147.105 165.376 191.877  0.00  0.00    +0.038 HD
ATOM     28  H   UNL     1     145.900 167.601 193.588  0.00  0.00    +0.065 HD
ATOM     29  H   UNL     1     143.431 166.988 194.180  0.00  0.00    +0.054 HD
ATOM     30  H   UNL     1     142.395 166.548 192.719  0.00  0.00    +0.054 HD
ATOM     31  H   UNL     1     145.099 165.002 190.996  0.00  0.00    +0.035 HD
ATOM     32  H   UNL     1     145.494 166.532 189.179  0.00  0.00    +0.034 HD
ATOM     33  H   UNL     1     147.609 167.319 188.730  0.00  0.00    +0.079 HD
ATOM     34  H   UNL     1     149.353 168.581 189.932  0.00  0.00    +0.061 HD
ATOM     35  H   UNL     1     150.395 165.720 190.206  0.00  0.00    +0.060 HD
ATOM     36  H   UNL     1     145.412 170.256 190.843  0.00  0.00    +0.149 HD
ATOM     37  H   UNL     1     143.798 168.398 190.637  0.00  0.00    +0.050 HD
ENDROOT
BRANCH   1  38
ATOM     38  C   UNL     1     153.131 166.027 193.704  0.00  0.00    -0.055 C 
ATOM     39  H   UNL     1     152.951 166.112 194.781  0.00  0.00    +0.024 HD
ATOM     40  H   UNL     1     153.839 166.814 193.424  0.00  0.00    +0.024 HD
ATOM     41  H   UNL     1     153.612 165.060 193.517  0.00  0.00    +0.024 HD
ENDBRANCH   1  38
BRANCH  15  42
ATOM     42  C   UNL     1     152.935 166.633 189.953  0.00  0.00    -0.025 C 
ATOM     43  H   UNL     1     153.207 165.749 190.538  0.00  0.00    +0.026 HD
ATOM     44  H   UNL     1     152.699 166.308 188.932  0.00  0.00    +0.026 HD
ATOM     45  H   UNL     1     153.824 167.271 189.880  0.00  0.00    +0.026 HD
ENDBRANCH  15  42
BRANCH   9  46
ATOM     46  C   UNL     1     143.217 165.667 190.340  0.00  0.00    -0.058 C 
ATOM     47  H   UNL     1     142.818 164.711 190.694  0.00  0.00    +0.024 HD
ATOM     48  H   UNL     1     142.481 166.440 190.592  0.00  0.00    +0.024 HD
ATOM     49  H   UNL     1     143.285 165.614 189.249  0.00  0.00    +0.024 HD
ENDBRANCH   9  46
BRANCH  21  50
ATOM     50  C   UNL     1     144.327 168.777 188.610  0.00  0.00    -0.009 C 
ATOM     51  H   UNL     1     144.455 169.862 188.514  0.00  0.00    +0.033 HD
ATOM     52  H   UNL     1     145.048 168.337 187.907  0.00  0.00    +0.033 HD
BRANCH  50  53
ATOM     53  C   UNL     1     142.947 168.390 188.134  0.00  0.00    -0.046 A 
ATOM     54  C   UNL     1     142.788 167.472 187.089  0.00  0.00    -0.059 A 
ATOM     55  C   UNL     1     141.515 167.123 186.635  0.00  0.00    -0.062 A 
ATOM     56  C   UNL     1     140.384 167.680 187.227  0.00  0.00    -0.062 A 
ATOM     57  C   UNL     1     140.527 168.581 188.279  0.00  0.00    -0.062 A 
ATOM     58  C   UNL     1     141.799 168.929 188.733  0.00  0.00    -0.059 A 
ATOM     59  H   UNL     1     143.655 167.034 186.597  0.00  0.00    +0.062 HD
ATOM     60  H   UNL     1     141.410 166.427 185.808  0.00  0.00    +0.062 HD
ATOM     61  H   UNL     1     139.394 167.415 186.866  0.00  0.00    +0.062 HD
ATOM     62  H   UNL     1     139.646 169.017 188.742  0.00  0.00    +0.062 HD
ATOM     63  H   UNL     1     141.883 169.631 189.560  0.00  0.00    +0.062 HD
ENDBRANCH  50  53
ENDBRANCH  21  50
BRANCH  15  64
ATOM     64  O   UNL     1     151.851 168.736 190.046  0.00  0.00    -0.377 OA
ATOM     65  H   UNL     1     150.956 168.942 189.704  0.00  0.00    +0.211 HD
ENDBRANCH  15  64
BRANCH   6  66
ATOM     66  O   UNL     1     145.952 165.623 194.139  0.00  0.00    -0.387 OA
ATOM     67  H   UNL     1     146.329 164.826 193.729  0.00  0.00    +0.210 HD
ENDBRANCH   6  66
BRANCH  12  68
ATOM     68  O   UNL     1     148.059 165.470 189.623  0.00  0.00    -0.456 OA
BRANCH  68  69
ATOM     69  C   UNL     1     147.886 164.848 188.432  0.00  0.00    +0.305 C 
ATOM     70  O   UNL     1     148.593 164.966 187.443  0.00  0.00    -0.251 OA
BRANCH  69  71
ATOM     71  C   UNL     1     146.645 164.009 188.478  0.00  0.00    +0.033 C 
ATOM     72  H   UNL     1     146.751 163.240 189.246  0.00  0.00    +0.034 HD
ATOM     73  H   UNL     1     145.787 164.643 188.720  0.00  0.00    +0.034 HD
ATOM     74  H   UNL     1     146.466 163.554 187.500  0.00  0.00    +0.034 HD
ENDBRANCH  69  71
ENDBRANCH  68  69
ENDBRANCH  12  68
TORSDOF 10
ENDMDL
