MODEL 1
REMARK VINA RESULT:      -6.8      0.000      0.000
REMARK  Name = Cytochalasin D_conf3
REMARK  10 active torsions:
REMARK  status: ('A' for Active; 'I' for Inactive)
REMARK    1  A    between atoms: C_1  and  C_2
REMARK    2  A    between atoms: C_7  and  O_37
REMARK    3  A    between atoms: C_10  and  C_36
REMARK    4  A    between atoms: C_13  and  O_21
REMARK    5  A    between atoms: C_16  and  C_19
REMARK    6  A    between atoms: C_16  and  O_20
REMARK    7  A    between atoms: O_21  and  C_22
REMARK    8  A    between atoms: C_22  and  C_24
REMARK    9  A    between atoms: C_28  and  C_29
REMARK   10  A    between atoms: C_29  and  C_30
REMARK                            x       y       z     vdW  Elec       q    Type
REMARK                         _______ _______ _______ _____ _____    ______ ____
ROOT
ATOM      1  C   UNL     1     155.118 164.270 189.266  0.00  0.00    +0.021 C 
ATOM      2  C   UNL     1     154.818 164.707 190.708  0.00  0.00    -0.025 C 
ATOM      3  C   UNL     1     153.359 164.725 191.080  0.00  0.00    -0.087 C 
ATOM      4  C   UNL     1     152.792 165.752 191.740  0.00  0.00    -0.081 C 
ATOM      5  C   UNL     1     151.307 165.875 192.085  0.00  0.00    +0.025 C 
ATOM      6  C   UNL     1     151.171 165.711 193.632  0.00  0.00    +0.084 C 
ATOM      7  C   UNL     1     149.817 166.105 194.170  0.00  0.00    -0.045 C 
ATOM      8  C   UNL     1     149.654 166.421 195.467  0.00  0.00    -0.097 C 
ATOM      9  C   UNL     1     148.729 166.128 193.123  0.00  0.00    -0.015 C 
ATOM     10  C   UNL     1     149.056 167.221 192.068  0.00  0.00    +0.002 C 
ATOM     11  C   UNL     1     150.573 167.171 191.571  0.00  0.00    +0.101 C 
ATOM     12  C   UNL     1     150.600 167.369 190.016  0.00  0.00    +0.136 C 
ATOM     13  C   UNL     1     151.983 167.398 189.391  0.00  0.00    -0.044 C 
ATOM     14  C   UNL     1     152.468 166.504 188.507  0.00  0.00    -0.046 C 
ATOM     15  C   UNL     1     153.902 166.333 188.042  0.00  0.00    +0.139 C 
ATOM     16  C   UNL     1     154.195 164.805 188.170  0.00  0.00    +0.171 C 
ATOM     17  O   UNL     1     153.670 163.993 187.393  0.00  0.00    -0.294 OA
ATOM     18  C   UNL     1     151.161 168.418 192.218  0.00  0.00    +0.224 C 
ATOM     19  O   UNL     1     152.340 168.723 192.285  0.00  0.00    -0.275 OA
ATOM     20  N   UNL     1     150.161 169.205 192.712  0.00  0.00    -0.311 N 
ATOM     21  C   UNL     1     148.835 168.670 192.571  0.00  0.00    +0.032 C 
ATOM     22  H   UNL     1     154.974 163.178 189.243  0.00  0.00    +0.038 HD
ATOM     23  H   UNL     1     155.276 165.683 190.911  0.00  0.00    +0.031 HD
ATOM     24  H   UNL     1     155.322 164.004 191.387  0.00  0.00    +0.031 HD
ATOM     25  H   UNL     1     152.753 163.875 190.772  0.00  0.00    +0.057 HD
ATOM     26  H   UNL     1     153.428 166.576 192.065  0.00  0.00    +0.057 HD
ATOM     27  H   UNL     1     150.809 165.015 191.612  0.00  0.00    +0.038 HD
ATOM     28  H   UNL     1     151.950 166.289 194.149  0.00  0.00    +0.065 HD
ATOM     29  H   UNL     1     150.490 166.372 196.161  0.00  0.00    +0.054 HD
ATOM     30  H   UNL     1     148.697 166.710 195.887  0.00  0.00    +0.054 HD
ATOM     31  H   UNL     1     148.772 165.157 192.607  0.00  0.00    +0.035 HD
ATOM     32  H   UNL     1     148.375 167.025 191.234  0.00  0.00    +0.034 HD
ATOM     33  H   UNL     1     150.141 168.336 189.778  0.00  0.00    +0.079 HD
ATOM     34  H   UNL     1     152.627 168.197 189.752  0.00  0.00    +0.061 HD
ATOM     35  H   UNL     1     151.796 165.732 188.128  0.00  0.00    +0.060 HD
ATOM     36  H   UNL     1     150.385 170.071 193.189  0.00  0.00    +0.149 HD
ATOM     37  H   UNL     1     148.402 168.699 193.575  0.00  0.00    +0.050 HD
ENDROOT
BRANCH   1  38
ATOM     38  C   UNL     1     156.577 164.523 188.892  0.00  0.00    -0.055 C 
ATOM     39  H   UNL     1     157.047 165.216 189.600  0.00  0.00    +0.024 HD
ATOM     40  H   UNL     1     156.649 164.961 187.892  0.00  0.00    +0.024 HD
ATOM     41  H   UNL     1     157.164 163.600 188.898  0.00  0.00    +0.024 HD
ENDBRANCH   1  38
BRANCH  15  42
ATOM     42  C   UNL     1     154.028 166.734 186.571  0.00  0.00    -0.025 C 
ATOM     43  H   UNL     1     153.058 166.963 186.114  0.00  0.00    +0.026 HD
ATOM     44  H   UNL     1     154.489 165.926 185.991  0.00  0.00    +0.026 HD
ATOM     45  H   UNL     1     154.676 167.611 186.457  0.00  0.00    +0.026 HD
ENDBRANCH  15  42
BRANCH   9  46
ATOM     46  C   UNL     1     147.288 166.204 193.642  0.00  0.00    -0.058 C 
ATOM     47  H   UNL     1     147.272 166.562 194.677  0.00  0.00    +0.024 HD
ATOM     48  H   UNL     1     146.767 165.242 193.610  0.00  0.00    +0.024 HD
ATOM     49  H   UNL     1     146.702 166.911 193.043  0.00  0.00    +0.024 HD
ENDBRANCH   9  46
BRANCH  21  50
ATOM     50  C   UNL     1     147.994 169.553 191.628  0.00  0.00    -0.009 C 
ATOM     51  H   UNL     1     148.217 169.289 190.585  0.00  0.00    +0.033 HD
ATOM     52  H   UNL     1     146.926 169.339 191.751  0.00  0.00    +0.033 HD
BRANCH  50  53
ATOM     53  C   UNL     1     148.252 171.032 191.790  0.00  0.00    -0.046 A 
ATOM     54  C   UNL     1     148.291 171.610 193.065  0.00  0.00    -0.059 A 
ATOM     55  C   UNL     1     148.542 172.976 193.217  0.00  0.00    -0.062 A 
ATOM     56  C   UNL     1     148.749 173.776 192.096  0.00  0.00    -0.062 A 
ATOM     57  C   UNL     1     148.698 173.214 190.822  0.00  0.00    -0.062 A 
ATOM     58  C   UNL     1     148.446 171.850 190.669  0.00  0.00    -0.059 A 
ATOM     59  H   UNL     1     148.117 171.006 193.953  0.00  0.00    +0.062 HD
ATOM     60  H   UNL     1     148.567 173.414 194.211  0.00  0.00    +0.062 HD
ATOM     61  H   UNL     1     148.941 174.838 192.216  0.00  0.00    +0.062 HD
ATOM     62  H   UNL     1     148.849 173.841 189.947  0.00  0.00    +0.062 HD
ATOM     63  H   UNL     1     148.402 171.432 189.666  0.00  0.00    +0.062 HD
ENDBRANCH  50  53
ENDBRANCH  21  50
BRANCH  15  64
ATOM     64  O   UNL     1     154.789 167.168 188.765  0.00  0.00    -0.377 OA
ATOM     65  H   UNL     1     154.342 168.013 188.933  0.00  0.00    +0.211 HD
ENDBRANCH  15  64
BRANCH   6  66
ATOM     66  O   UNL     1     151.353 164.335 193.974  0.00  0.00    -0.387 OA
ATOM     67  H   UNL     1     152.291 164.130 193.818  0.00  0.00    +0.210 HD
ENDBRANCH   6  66
BRANCH  12  68
ATOM     68  O   UNL     1     149.844 166.284 189.427  0.00  0.00    -0.456 OA
BRANCH  68  69
ATOM     69  C   UNL     1     148.841 166.618 188.573  0.00  0.00    +0.305 C 
ATOM     70  O   UNL     1     148.941 167.363 187.608  0.00  0.00    -0.251 OA
BRANCH  69  71
ATOM     71  C   UNL     1     147.567 165.960 189.003  0.00  0.00    +0.033 C 
ATOM     72  H   UNL     1     147.267 165.223 188.254  0.00  0.00    +0.034 HD
ATOM     73  H   UNL     1     147.718 165.444 189.955  0.00  0.00    +0.034 HD
ATOM     74  H   UNL     1     146.775 166.710 189.094  0.00  0.00    +0.034 HD
ENDBRANCH  69  71
ENDBRANCH  68  69
ENDBRANCH  12  68
TORSDOF 10
ENDMDL
MODEL 2
REMARK VINA RESULT:      -6.8      2.316      3.742
REMARK  Name = Cytochalasin D_conf3
REMARK  10 active torsions:
REMARK  status: ('A' for Active; 'I' for Inactive)
REMARK    1  A    between atoms: C_1  and  C_2
REMARK    2  A    between atoms: C_7  and  O_37
REMARK    3  A    between atoms: C_10  and  C_36
REMARK    4  A    between atoms: C_13  and  O_21
REMARK    5  A    between atoms: C_16  and  C_19
REMARK    6  A    between atoms: C_16  and  O_20
REMARK    7  A    between atoms: O_21  and  C_22
REMARK    8  A    between atoms: C_22  and  C_24
REMARK    9  A    between atoms: C_28  and  C_29
REMARK   10  A    between atoms: C_29  and  C_30
REMARK                            x       y       z     vdW  Elec       q    Type
REMARK                         _______ _______ _______ _____ _____    ______ ____
ROOT
ATOM      1  C   UNL     1     154.331 165.443 190.008  0.00  0.00    +0.021 C 
ATOM      2  C   UNL     1     153.852 165.941 191.380  0.00  0.00    -0.025 C 
ATOM      3  C   UNL     1     152.496 165.441 191.804  0.00  0.00    -0.087 C 
ATOM      4  C   UNL     1     151.556 166.250 192.327  0.00  0.00    -0.081 C 
ATOM      5  C   UNL     1     150.136 165.830 192.709  0.00  0.00    +0.025 C 
ATOM      6  C   UNL     1     150.043 165.864 194.268  0.00  0.00    +0.084 C 
ATOM      7  C   UNL     1     148.631 165.771 194.796  0.00  0.00    -0.045 C 
ATOM      8  C   UNL     1     148.329 166.191 196.038  0.00  0.00    -0.097 C 
ATOM      9  C   UNL     1     147.646 165.205 193.801  0.00  0.00    -0.015 C 
ATOM     10  C   UNL     1     147.538 166.165 192.585  0.00  0.00    +0.002 C 
ATOM     11  C   UNL     1     148.962 166.640 192.039  0.00  0.00    +0.101 C 
ATOM     12  C   UNL     1     148.942 166.594 190.472  0.00  0.00    +0.136 C 
ATOM     13  C   UNL     1     150.215 167.068 189.794  0.00  0.00    -0.044 C 
ATOM     14  C   UNL     1     151.031 166.314 189.034  0.00  0.00    -0.046 C 
ATOM     15  C   UNL     1     152.426 166.651 188.542  0.00  0.00    +0.139 C 
ATOM     16  C   UNL     1     153.295 165.400 188.883  0.00  0.00    +0.171 C 
ATOM     17  O   UNL     1     153.150 164.339 188.257  0.00  0.00    -0.294 OA
ATOM     18  C   UNL     1     148.996 168.100 192.470  0.00  0.00    +0.224 C 
ATOM     19  O   UNL     1     149.958 168.850 192.444  0.00  0.00    -0.275 OA
ATOM     20  N   UNL     1     147.757 168.496 192.882  0.00  0.00    -0.311 N 
ATOM     21  C   UNL     1     146.752 167.469 192.876  0.00  0.00    +0.032 C 
ATOM     22  H   UNL     1     154.630 164.393 190.152  0.00  0.00    +0.038 HD
ATOM     23  H   UNL     1     153.884 167.037 191.417  0.00  0.00    +0.031 HD
ATOM     24  H   UNL     1     154.577 165.605 192.135  0.00  0.00    +0.031 HD
ATOM     25  H   UNL     1     152.281 164.385 191.650  0.00  0.00    +0.057 HD
ATOM     26  H   UNL     1     151.808 167.297 192.500  0.00  0.00    +0.057 HD
ATOM     27  H   UNL     1     150.028 164.784 192.389  0.00  0.00    +0.038 HD
ATOM     28  H   UNL     1     150.519 166.772 194.662  0.00  0.00    +0.065 HD
ATOM     29  H   UNL     1     149.101 166.580 196.697  0.00  0.00    +0.054 HD
ATOM     30  H   UNL     1     147.327 166.141 196.448  0.00  0.00    +0.054 HD
ATOM     31  H   UNL     1     148.078 164.263 193.434  0.00  0.00    +0.035 HD
ATOM     32  H   UNL     1     147.007 165.593 191.817  0.00  0.00    +0.034 HD
ATOM     33  H   UNL     1     148.144 167.254 190.113  0.00  0.00    +0.079 HD
ATOM     34  H   UNL     1     150.484 168.101 190.007  0.00  0.00    +0.061 HD
ATOM     35  H   UNL     1     150.726 165.292 188.801  0.00  0.00    +0.060 HD
ATOM     36  H   UNL     1     147.611 169.443 193.216  0.00  0.00    +0.149 HD
ATOM     37  H   UNL     1     146.322 167.477 193.881  0.00  0.00    +0.050 HD
ENDROOT
BRANCH   1  38
ATOM     38  C   UNL     1     155.579 166.189 189.542  0.00  0.00    -0.055 C 
ATOM     39  H   UNL     1     155.309 167.091 188.980  0.00  0.00    +0.024 HD
ATOM     40  H   UNL     1     156.188 165.555 188.891  0.00  0.00    +0.024 HD
ATOM     41  H   UNL     1     156.204 166.503 190.384  0.00  0.00    +0.024 HD
ENDBRANCH   1  38
BRANCH  15  42
ATOM     42  C   UNL     1     152.416 166.841 187.024  0.00  0.00    -0.025 C 
ATOM     43  H   UNL     1     153.244 166.320 186.531  0.00  0.00    +0.026 HD
ATOM     44  H   UNL     1     152.492 167.905 186.770  0.00  0.00    +0.026 HD
ATOM     45  H   UNL     1     151.476 166.481 186.589  0.00  0.00    +0.026 HD
ENDBRANCH  15  42
BRANCH   9  46
ATOM     46  C   UNL     1     146.280 164.787 194.361  0.00  0.00    -0.058 C 
ATOM     47  H   UNL     1     145.730 165.662 194.724  0.00  0.00    +0.024 HD
ATOM     48  H   UNL     1     146.353 164.071 195.185  0.00  0.00    +0.024 HD
ATOM     49  H   UNL     1     145.671 164.321 193.577  0.00  0.00    +0.024 HD
ENDBRANCH   9  46
BRANCH  21  50
ATOM     50  C   UNL     1     145.652 167.796 191.848  0.00  0.00    -0.009 C 
ATOM     51  H   UNL     1     145.422 168.871 191.887  0.00  0.00    +0.033 HD
ATOM     52  H   UNL     1     146.013 167.622 190.828  0.00  0.00    +0.033 HD
BRANCH  50  53
ATOM     53  C   UNL     1     144.362 167.046 192.079  0.00  0.00    -0.046 A 
ATOM     54  C   UNL     1     143.621 167.251 193.250  0.00  0.00    -0.059 A 
ATOM     55  C   UNL     1     142.423 166.566 193.460  0.00  0.00    -0.062 A 
ATOM     56  C   UNL     1     141.957 165.665 192.505  0.00  0.00    -0.062 A 
ATOM     57  C   UNL     1     142.693 165.441 191.344  0.00  0.00    -0.062 A 
ATOM     58  C   UNL     1     143.892 166.124 191.133  0.00  0.00    -0.059 A 
ATOM     59  H   UNL     1     143.975 167.939 194.015  0.00  0.00    +0.062 HD
ATOM     60  H   UNL     1     141.857 166.732 194.373  0.00  0.00    +0.062 HD
ATOM     61  H   UNL     1     141.026 165.131 192.671  0.00  0.00    +0.062 HD
ATOM     62  H   UNL     1     142.335 164.731 190.603  0.00  0.00    +0.062 HD
ATOM     63  H   UNL     1     144.456 165.929 190.223  0.00  0.00    +0.062 HD
ENDBRANCH  50  53
ENDBRANCH  21  50
BRANCH  15  64
ATOM     64  O   UNL     1     152.896 167.867 189.097  0.00  0.00    -0.377 OA
ATOM     65  H   UNL     1     152.586 168.597 188.538  0.00  0.00    +0.211 HD
ENDBRANCH  15  64
BRANCH   6  66
ATOM     66  O   UNL     1     150.745 164.739 194.802  0.00  0.00    -0.387 OA
ATOM     67  H   UNL     1     151.302 165.076 195.525  0.00  0.00    +0.210 HD
ENDBRANCH   6  66
BRANCH  12  68
ATOM     68  O   UNL     1     148.688 165.223 190.082  0.00  0.00    -0.456 OA
BRANCH  68  69
ATOM     69  C   UNL     1     147.997 165.025 188.928  0.00  0.00    +0.305 C 
ATOM     70  O   UNL     1     148.332 164.290 188.011  0.00  0.00    -0.251 OA
BRANCH  69  71
ATOM     71  C   UNL     1     146.760 165.871 188.925  0.00  0.00    +0.033 C 
ATOM     72  H   UNL     1     147.028 166.904 188.690  0.00  0.00    +0.034 HD
ATOM     73  H   UNL     1     146.066 165.511 188.161  0.00  0.00    +0.034 HD
ATOM     74  H   UNL     1     146.292 165.845 189.913  0.00  0.00    +0.034 HD
ENDBRANCH  69  71
ENDBRANCH  68  69
ENDBRANCH  12  68
TORSDOF 10
ENDMDL
MODEL 3
REMARK VINA RESULT:      -6.7      3.219      7.442
REMARK  Name = Cytochalasin D_conf3
REMARK  10 active torsions:
REMARK  status: ('A' for Active; 'I' for Inactive)
REMARK    1  A    between atoms: C_1  and  C_2
REMARK    2  A    between atoms: C_7  and  O_37
REMARK    3  A    between atoms: C_10  and  C_36
REMARK    4  A    between atoms: C_13  and  O_21
REMARK    5  A    between atoms: C_16  and  C_19
REMARK    6  A    between atoms: C_16  and  O_20
REMARK    7  A    between atoms: O_21  and  C_22
REMARK    8  A    between atoms: C_22  and  C_24
REMARK    9  A    between atoms: C_28  and  C_29
REMARK   10  A    between atoms: C_29  and  C_30
REMARK                            x       y       z     vdW  Elec       q    Type
REMARK                         _______ _______ _______ _____ _____    ______ ____
ROOT
ATOM      1  C   UNL     1     144.832 170.089 185.247  0.00  0.00    +0.021 C 
ATOM      2  C   UNL     1     144.749 170.680 186.663  0.00  0.00    -0.025 C 
ATOM      3  C   UNL     1     146.032 170.636 187.450  0.00  0.00    -0.087 C 
ATOM      4  C   UNL     1     146.082 170.229 188.732  0.00  0.00    -0.081 C 
ATOM      5  C   UNL     1     147.355 170.087 189.569  0.00  0.00    +0.025 C 
ATOM      6  C   UNL     1     147.329 171.212 190.652  0.00  0.00    +0.084 C 
ATOM      7  C   UNL     1     148.354 171.029 191.746  0.00  0.00    -0.045 C 
ATOM      8  C   UNL     1     148.210 171.637 192.937  0.00  0.00    -0.097 C 
ATOM      9  C   UNL     1     149.487 170.105 191.368  0.00  0.00    -0.015 C 
ATOM     10  C   UNL     1     148.925 168.677 191.125  0.00  0.00    +0.002 C 
ATOM     11  C   UNL     1     147.618 168.671 190.208  0.00  0.00    +0.101 C 
ATOM     12  C   UNL     1     147.732 167.496 189.177  0.00  0.00    +0.136 C 
ATOM     13  C   UNL     1     146.535 167.322 188.259  0.00  0.00    -0.044 C 
ATOM     14  C   UNL     1     146.542 167.468 186.920  0.00  0.00    -0.046 C 
ATOM     15  C   UNL     1     145.351 167.555 185.983  0.00  0.00    +0.139 C 
ATOM     16  C   UNL     1     145.631 168.795 185.078  0.00  0.00    +0.171 C 
ATOM     17  O   UNL     1     146.520 168.760 184.214  0.00  0.00    -0.294 OA
ATOM     18  C   UNL     1     146.528 168.319 191.211  0.00  0.00    +0.224 C 
ATOM     19  O   UNL     1     145.322 168.370 191.032  0.00  0.00    -0.275 OA
ATOM     20  N   UNL     1     147.087 167.891 192.380  0.00  0.00    -0.311 N 
ATOM     21  C   UNL     1     148.523 167.928 192.421  0.00  0.00    +0.032 C 
ATOM     22  H   UNL     1     145.372 170.831 184.638  0.00  0.00    +0.038 HD
ATOM     23  H   UNL     1     143.939 170.201 187.226  0.00  0.00    +0.031 HD
ATOM     24  H   UNL     1     144.455 171.735 186.573  0.00  0.00    +0.031 HD
ATOM     25  H   UNL     1     146.946 170.926 186.934  0.00  0.00    +0.057 HD
ATOM     26  H   UNL     1     145.149 169.975 189.234  0.00  0.00    +0.057 HD
ATOM     27  H   UNL     1     148.195 170.295 188.890  0.00  0.00    +0.038 HD
ATOM     28  H   UNL     1     146.329 171.291 191.101  0.00  0.00    +0.065 HD
ATOM     29  H   UNL     1     147.366 172.295 193.127  0.00  0.00    +0.054 HD
ATOM     30  H   UNL     1     148.925 171.526 193.744  0.00  0.00    +0.054 HD
ATOM     31  H   UNL     1     149.879 170.467 190.406  0.00  0.00    +0.035 HD
ATOM     32  H   UNL     1     149.737 168.131 190.635  0.00  0.00    +0.034 HD
ATOM     33  H   UNL     1     147.827 166.554 189.730  0.00  0.00    +0.079 HD
ATOM     34  H   UNL     1     145.598 167.112 188.770  0.00  0.00    +0.061 HD
ATOM     35  H   UNL     1     147.497 167.641 186.421  0.00  0.00    +0.060 HD
ATOM     36  H   UNL     1     146.495 167.629 193.161  0.00  0.00    +0.149 HD
ATOM     37  H   UNL     1     148.773 168.495 193.322  0.00  0.00    +0.050 HD
ENDROOT
BRANCH   1  38
ATOM     38  C   UNL     1     143.449 169.936 184.618  0.00  0.00    -0.055 C 
ATOM     39  H   UNL     1     142.688 170.448 185.218  0.00  0.00    +0.024 HD
ATOM     40  H   UNL     1     143.171 168.880 184.548  0.00  0.00    +0.024 HD
ATOM     41  H   UNL     1     143.411 170.360 183.610  0.00  0.00    +0.024 HD
ENDBRANCH   1  38
BRANCH  15  42
ATOM     42  C   UNL     1     145.286 166.308 185.099  0.00  0.00    -0.025 C 
ATOM     43  H   UNL     1     146.070 165.581 185.341  0.00  0.00    +0.026 HD
ATOM     44  H   UNL     1     145.398 166.581 184.043  0.00  0.00    +0.026 HD
ATOM     45  H   UNL     1     144.315 165.809 185.194  0.00  0.00    +0.026 HD
ENDBRANCH  15  42
BRANCH   9  46
ATOM     46  C   UNL     1     150.713 170.121 192.291  0.00  0.00    -0.058 C 
ATOM     47  H   UNL     1     151.558 170.612 191.796  0.00  0.00    +0.024 HD
ATOM     48  H   UNL     1     151.036 169.122 192.596  0.00  0.00    +0.024 HD
ATOM     49  H   UNL     1     150.497 170.687 193.204  0.00  0.00    +0.024 HD
ENDBRANCH   9  46
BRANCH  21  50
ATOM     50  C   UNL     1     149.097 166.502 192.541  0.00  0.00    -0.009 C 
ATOM     51  H   UNL     1     148.356 165.778 192.171  0.00  0.00    +0.033 HD
ATOM     52  H   UNL     1     149.964 166.380 191.882  0.00  0.00    +0.033 HD
BRANCH  50  53
ATOM     53  C   UNL     1     149.454 166.108 193.953  0.00  0.00    -0.046 A 
ATOM     54  C   UNL     1     148.490 166.149 194.968  0.00  0.00    -0.059 A 
ATOM     55  C   UNL     1     148.817 165.774 196.273  0.00  0.00    -0.062 A 
ATOM     56  C   UNL     1     150.112 165.361 196.577  0.00  0.00    -0.062 A 
ATOM     57  C   UNL     1     151.084 165.331 195.579  0.00  0.00    -0.062 A 
ATOM     58  C   UNL     1     150.758 165.707 194.275  0.00  0.00    -0.059 A 
ATOM     59  H   UNL     1     147.476 166.483 194.755  0.00  0.00    +0.062 HD
ATOM     60  H   UNL     1     148.060 165.812 197.053  0.00  0.00    +0.062 HD
ATOM     61  H   UNL     1     150.365 165.073 197.593  0.00  0.00    +0.062 HD
ATOM     62  H   UNL     1     152.097 165.019 195.818  0.00  0.00    +0.062 HD
ATOM     63  H   UNL     1     151.534 165.684 193.512  0.00  0.00    +0.062 HD
ENDBRANCH  50  53
ENDBRANCH  21  50
BRANCH  15  64
ATOM     64  O   UNL     1     144.128 167.606 186.697  0.00  0.00    -0.377 OA
ATOM     65  H   UNL     1     144.241 168.206 187.452  0.00  0.00    +0.211 HD
ENDBRANCH  15  64
BRANCH   6  66
ATOM     66  O   UNL     1     147.626 172.465 190.032  0.00  0.00    -0.387 OA
ATOM     67  H   UNL     1     147.253 173.156 190.606  0.00  0.00    +0.210 HD
ENDBRANCH   6  66
BRANCH  12  68
ATOM     68  O   UNL     1     148.908 167.738 188.370  0.00  0.00    -0.456 OA
BRANCH  68  69
ATOM     69  C   UNL     1     149.810 166.726 188.267  0.00  0.00    +0.305 C 
ATOM     70  O   UNL     1     149.981 165.835 189.086  0.00  0.00    -0.251 OA
BRANCH  69  71
ATOM     71  C   UNL     1     150.600 166.876 187.003  0.00  0.00    +0.033 C 
ATOM     72  H   UNL     1     150.848 167.930 186.853  0.00  0.00    +0.034 HD
ATOM     73  H   UNL     1     151.531 166.308 187.078  0.00  0.00    +0.034 HD
ATOM     74  H   UNL     1     150.006 166.530 186.153  0.00  0.00    +0.034 HD
ENDBRANCH  69  71
ENDBRANCH  68  69
ENDBRANCH  12  68
TORSDOF 10
ENDMDL
MODEL 4
REMARK VINA RESULT:      -6.5      3.029      7.322
REMARK  Name = Cytochalasin D_conf3
REMARK  10 active torsions:
REMARK  status: ('A' for Active; 'I' for Inactive)
REMARK    1  A    between atoms: C_1  and  C_2
REMARK    2  A    between atoms: C_7  and  O_37
REMARK    3  A    between atoms: C_10  and  C_36
REMARK    4  A    between atoms: C_13  and  O_21
REMARK    5  A    between atoms: C_16  and  C_19
REMARK    6  A    between atoms: C_16  and  O_20
REMARK    7  A    between atoms: O_21  and  C_22
REMARK    8  A    between atoms: C_22  and  C_24
REMARK    9  A    between atoms: C_28  and  C_29
REMARK   10  A    between atoms: C_29  and  C_30
REMARK                            x       y       z     vdW  Elec       q    Type
REMARK                         _______ _______ _______ _____ _____    ______ ____
ROOT
ATOM      1  C   UNL     1     144.545 169.701 185.839  0.00  0.00    +0.021 C 
ATOM      2  C   UNL     1     144.601 170.311 187.249  0.00  0.00    -0.025 C 
ATOM      3  C   UNL     1     145.959 170.286 187.902  0.00  0.00    -0.087 C 
ATOM      4  C   UNL     1     146.142 169.896 189.177  0.00  0.00    -0.081 C 
ATOM      5  C   UNL     1     147.494 169.774 189.882  0.00  0.00    +0.025 C 
ATOM      6  C   UNL     1     147.569 170.912 190.948  0.00  0.00    +0.084 C 
ATOM      7  C   UNL     1     148.702 170.751 191.934  0.00  0.00    -0.045 C 
ATOM      8  C   UNL     1     148.674 171.373 193.126  0.00  0.00    -0.097 C 
ATOM      9  C   UNL     1     149.798 169.830 191.454  0.00  0.00    -0.015 C 
ATOM     10  C   UNL     1     149.226 168.395 191.288  0.00  0.00    +0.002 C 
ATOM     11  C   UNL     1     147.832 168.368 190.509  0.00  0.00    +0.101 C 
ATOM     12  C   UNL     1     147.850 167.180 189.486  0.00  0.00    +0.136 C 
ATOM     13  C   UNL     1     146.568 166.986 188.696  0.00  0.00    -0.044 C 
ATOM     14  C   UNL     1     146.437 167.114 187.362  0.00  0.00    -0.046 C 
ATOM     15  C   UNL     1     145.157 167.181 186.551  0.00  0.00    +0.139 C 
ATOM     16  C   UNL     1     145.333 168.411 185.606  0.00  0.00    +0.171 C 
ATOM     17  O   UNL     1     146.130 168.371 184.657  0.00  0.00    -0.294 OA
ATOM     18  C   UNL     1     146.852 168.022 191.621  0.00  0.00    +0.224 C 
ATOM     19  O   UNL     1     145.634 168.063 191.566  0.00  0.00    -0.275 OA
ATOM     20  N   UNL     1     147.531 167.613 192.733  0.00  0.00    -0.311 N 
ATOM     21  C   UNL     1     148.963 167.661 192.627  0.00  0.00    +0.032 C 
ATOM     22  H   UNL     1     145.015 170.439 185.170  0.00  0.00    +0.038 HD
ATOM     23  H   UNL     1     143.857 169.834 187.897  0.00  0.00    +0.031 HD
ATOM     24  H   UNL     1     144.291 171.363 187.176  0.00  0.00    +0.031 HD
ATOM     25  H   UNL     1     146.813 170.575 187.292  0.00  0.00    +0.057 HD
ATOM     26  H   UNL     1     145.266 169.643 189.775  0.00  0.00    +0.057 HD
ATOM     27  H   UNL     1     148.259 169.978 189.119  0.00  0.00    +0.038 HD
ATOM     28  H   UNL     1     146.620 170.991 191.495  0.00  0.00    +0.065 HD
ATOM     29  H   UNL     1     147.849 172.029 193.392  0.00  0.00    +0.054 HD
ATOM     30  H   UNL     1     149.468 171.278 193.858  0.00  0.00    +0.054 HD
ATOM     31  H   UNL     1     150.086 170.181 190.453  0.00  0.00    +0.035 HD
ATOM     32  H   UNL     1     149.988 167.848 190.725  0.00  0.00    +0.034 HD
ATOM     33  H   UNL     1     148.008 166.246 190.038  0.00  0.00    +0.079 HD
ATOM     34  H   UNL     1     145.689 166.777 189.303  0.00  0.00    +0.061 HD
ATOM     35  H   UNL     1     147.335 167.287 186.767  0.00  0.00    +0.060 HD
ATOM     36  H   UNL     1     147.023 167.358 193.573  0.00  0.00    +0.149 HD
ATOM     37  H   UNL     1     149.299 168.241 193.491  0.00  0.00    +0.050 HD
ENDROOT
BRANCH   1  38
ATOM     38  C   UNL     1     143.107 169.531 185.356  0.00  0.00    -0.055 C 
ATOM     39  H   UNL     1     142.992 168.599 184.792  0.00  0.00    +0.024 HD
ATOM     40  H   UNL     1     142.817 170.360 184.703  0.00  0.00    +0.024 HD
ATOM     41  H   UNL     1     142.398 169.499 186.190  0.00  0.00    +0.024 HD
ENDBRANCH   1  38
BRANCH  15  42
ATOM     42  C   UNL     1     145.013 165.922 185.693  0.00  0.00    -0.025 C 
ATOM     43  H   UNL     1     144.188 165.996 184.975  0.00  0.00    +0.026 HD
ATOM     44  H   UNL     1     144.828 165.046 186.325  0.00  0.00    +0.026 HD
ATOM     45  H   UNL     1     145.935 165.718 185.135  0.00  0.00    +0.026 HD
ENDBRANCH  15  42
BRANCH   9  46
ATOM     46  C   UNL     1     151.111 169.866 192.247  0.00  0.00    -0.058 C 
ATOM     47  H   UNL     1     151.574 170.857 192.176  0.00  0.00    +0.024 HD
ATOM     48  H   UNL     1     151.841 169.128 191.905  0.00  0.00    +0.024 HD
ATOM     49  H   UNL     1     150.922 169.671 193.309  0.00  0.00    +0.024 HD
ENDBRANCH   9  46
BRANCH  21  50
ATOM     50  C   UNL     1     149.557 166.241 192.705  0.00  0.00    -0.009 C 
ATOM     51  H   UNL     1     149.378 165.823 193.707  0.00  0.00    +0.033 HD
ATOM     52  H   UNL     1     149.032 165.565 192.020  0.00  0.00    +0.033 HD
BRANCH  50  53
ATOM     53  C   UNL     1     151.045 166.190 192.450  0.00  0.00    -0.046 A 
ATOM     54  C   UNL     1     151.542 165.667 191.250  0.00  0.00    -0.059 A 
ATOM     55  C   UNL     1     152.917 165.631 191.008  0.00  0.00    -0.062 A 
ATOM     56  C   UNL     1     153.807 166.110 191.966  0.00  0.00    -0.062 A 
ATOM     57  C   UNL     1     153.325 166.619 193.170  0.00  0.00    -0.062 A 
ATOM     58  C   UNL     1     151.951 166.655 193.413  0.00  0.00    -0.059 A 
ATOM     59  H   UNL     1     150.865 165.274 190.495  0.00  0.00    +0.062 HD
ATOM     60  H   UNL     1     153.292 165.221 190.074  0.00  0.00    +0.062 HD
ATOM     61  H   UNL     1     154.876 166.079 191.778  0.00  0.00    +0.062 HD
ATOM     62  H   UNL     1     154.020 166.984 193.922  0.00  0.00    +0.062 HD
ATOM     63  H   UNL     1     151.595 167.048 194.363  0.00  0.00    +0.062 HD
ENDBRANCH  50  53
ENDBRANCH  21  50
BRANCH  15  64
ATOM     64  O   UNL     1     144.012 167.234 187.384  0.00  0.00    -0.377 OA
ATOM     65  H   UNL     1     143.357 167.813 186.964  0.00  0.00    +0.211 HD
ENDBRANCH  15  64
BRANCH   6  66
ATOM     66  O   UNL     1     147.791 172.159 190.285  0.00  0.00    -0.387 OA
ATOM     67  H   UNL     1     147.810 172.844 190.976  0.00  0.00    +0.210 HD
ENDBRANCH   6  66
BRANCH  12  68
ATOM     68  O   UNL     1     148.936 167.420 188.560  0.00  0.00    -0.456 OA
BRANCH  68  69
ATOM     69  C   UNL     1     149.736 166.364 188.255  0.00  0.00    +0.305 C 
ATOM     70  O   UNL     1     149.463 165.186 188.430  0.00  0.00    -0.251 OA
BRANCH  69  71
ATOM     71  C   UNL     1     151.035 166.856 187.694  0.00  0.00    +0.033 C 
ATOM     72  H   UNL     1     151.076 167.946 187.775  0.00  0.00    +0.034 HD
ATOM     73  H   UNL     1     151.869 166.436 188.263  0.00  0.00    +0.034 HD
ATOM     74  H   UNL     1     151.111 166.578 186.639  0.00  0.00    +0.034 HD
ENDBRANCH  69  71
ENDBRANCH  68  69
ENDBRANCH  12  68
TORSDOF 10
ENDMDL
MODEL 5
REMARK VINA RESULT:      -6.4      3.332      5.732
REMARK  Name = Cytochalasin D_conf3
REMARK  10 active torsions:
REMARK  status: ('A' for Active; 'I' for Inactive)
REMARK    1  A    between atoms: C_1  and  C_2
REMARK    2  A    between atoms: C_7  and  O_37
REMARK    3  A    between atoms: C_10  and  C_36
REMARK    4  A    between atoms: C_13  and  O_21
REMARK    5  A    between atoms: C_16  and  C_19
REMARK    6  A    between atoms: C_16  and  O_20
REMARK    7  A    between atoms: O_21  and  C_22
REMARK    8  A    between atoms: C_22  and  C_24
REMARK    9  A    between atoms: C_28  and  C_29
REMARK   10  A    between atoms: C_29  and  C_30
REMARK                            x       y       z     vdW  Elec       q    Type
REMARK                         _______ _______ _______ _____ _____    ______ ____
ROOT
ATOM      1  C   UNL     1     152.140 165.973 192.841  0.00  0.00    +0.021 C 
ATOM      2  C   UNL     1     150.887 166.535 193.531  0.00  0.00    -0.025 C 
ATOM      3  C   UNL     1     149.579 165.988 193.023  0.00  0.00    -0.087 C 
ATOM      4  C   UNL     1     148.524 166.776 192.742  0.00  0.00    -0.081 C 
ATOM      5  C   UNL     1     147.193 166.302 192.155  0.00  0.00    +0.025 C 
ATOM      6  C   UNL     1     146.114 166.437 193.276  0.00  0.00    +0.084 C 
ATOM      7  C   UNL     1     144.696 166.300 192.776  0.00  0.00    -0.045 C 
ATOM      8  C   UNL     1     143.663 166.785 193.487  0.00  0.00    -0.097 C 
ATOM      9  C   UNL     1     144.588 165.612 191.436  0.00  0.00    -0.015 C 
ATOM     10  C   UNL     1     145.293 166.478 190.357  0.00  0.00    +0.002 C 
ATOM     11  C   UNL     1     146.732 166.996 190.818  0.00  0.00    +0.101 C 
ATOM     12  C   UNL     1     147.730 166.842 189.619  0.00  0.00    +0.136 C 
ATOM     13  C   UNL     1     149.140 167.341 189.882  0.00  0.00    -0.044 C 
ATOM     14  C   UNL     1     150.254 166.585 189.898  0.00  0.00    -0.046 C 
ATOM     15  C   UNL     1     151.636 166.967 190.393  0.00  0.00    +0.139 C 
ATOM     16  C   UNL     1     152.078 165.793 191.323  0.00  0.00    +0.171 C 
ATOM     17  O   UNL     1     152.371 164.686 190.848  0.00  0.00    -0.294 OA
ATOM     18  C   UNL     1     146.480 168.481 191.037  0.00  0.00    +0.224 C 
ATOM     19  O   UNL     1     147.231 169.282 191.570  0.00  0.00    -0.275 OA
ATOM     20  N   UNL     1     145.268 168.833 190.516  0.00  0.00    -0.311 N 
ATOM     21  C   UNL     1     144.506 167.752 189.956  0.00  0.00    +0.032 C 
ATOM     22  H   UNL     1     152.274 164.953 193.237  0.00  0.00    +0.038 HD
ATOM     23  H   UNL     1     150.888 167.630 193.481  0.00  0.00    +0.031 HD
ATOM     24  H   UNL     1     150.952 166.292 194.601  0.00  0.00    +0.031 HD
ATOM     25  H   UNL     1     149.514 164.913 192.861  0.00  0.00    +0.057 HD
ATOM     26  H   UNL     1     148.605 167.844 192.943  0.00  0.00    +0.057 HD
ATOM     27  H   UNL     1     147.318 165.232 191.936  0.00  0.00    +0.038 HD
ATOM     28  H   UNL     1     146.223 167.395 193.801  0.00  0.00    +0.065 HD
ATOM     29  H   UNL     1     143.825 167.261 194.450  0.00  0.00    +0.054 HD
ATOM     30  H   UNL     1     142.633 166.706 193.157  0.00  0.00    +0.054 HD
ATOM     31  H   UNL     1     145.155 164.673 191.519  0.00  0.00    +0.035 HD
ATOM     32  H   UNL     1     145.385 165.826 189.483  0.00  0.00    +0.034 HD
ATOM     33  H   UNL     1     147.355 167.430 188.773  0.00  0.00    +0.079 HD
ATOM     34  H   UNL     1     149.208 168.400 190.125  0.00  0.00    +0.061 HD
ATOM     35  H   UNL     1     150.172 165.534 189.615  0.00  0.00    +0.060 HD
ATOM     36  H   UNL     1     144.942 169.791 190.592  0.00  0.00    +0.149 HD
ATOM     37  H   UNL     1     143.528 167.805 190.441  0.00  0.00    +0.050 HD
ENDROOT
BRANCH   1  38
ATOM     38  C   UNL     1     153.394 166.755 193.225  0.00  0.00    -0.055 C 
ATOM     39  H   UNL     1     153.781 167.317 192.368  0.00  0.00    +0.024 HD
ATOM     40  H   UNL     1     154.181 166.078 193.570  0.00  0.00    +0.024 HD
ATOM     41  H   UNL     1     153.195 167.474 194.026  0.00  0.00    +0.024 HD
ENDBRANCH   1  38
BRANCH  15  42
ATOM     42  C   UNL     1     152.610 167.052 189.216  0.00  0.00    -0.025 C 
ATOM     43  H   UNL     1     153.357 166.250 189.231  0.00  0.00    +0.026 HD
ATOM     44  H   UNL     1     153.147 168.008 189.230  0.00  0.00    +0.026 HD
ATOM     45  H   UNL     1     152.077 167.005 188.259  0.00  0.00    +0.026 HD
ENDBRANCH  15  42
BRANCH   9  46
ATOM     46  C   UNL     1     143.184 165.155 191.018  0.00  0.00    -0.058 C 
ATOM     47  H   UNL     1     142.816 164.379 191.698  0.00  0.00    +0.024 HD
ATOM     48  H   UNL     1     143.145 164.757 190.001  0.00  0.00    +0.024 HD
ATOM     49  H   UNL     1     142.478 165.993 191.068  0.00  0.00    +0.024 HD
ENDBRANCH   9  46
BRANCH  21  50
ATOM     50  C   UNL     1     144.332 167.945 188.436  0.00  0.00    -0.009 C 
ATOM     51  H   UNL     1     143.940 168.953 188.238  0.00  0.00    +0.033 HD
ATOM     52  H   UNL     1     145.305 167.917 187.931  0.00  0.00    +0.033 HD
BRANCH  50  53
ATOM     53  C   UNL     1     143.386 166.954 187.803  0.00  0.00    -0.046 A 
ATOM     54  C   UNL     1     143.869 165.959 186.944  0.00  0.00    -0.059 A 
ATOM     55  C   UNL     1     142.996 165.035 186.367  0.00  0.00    -0.062 A 
ATOM     56  C   UNL     1     141.631 165.100 186.638  0.00  0.00    -0.062 A 
ATOM     57  C   UNL     1     141.137 166.095 187.479  0.00  0.00    -0.062 A 
ATOM     58  C   UNL     1     142.008 167.020 188.055  0.00  0.00    -0.059 A 
ATOM     59  H   UNL     1     144.930 165.899 186.707  0.00  0.00    +0.062 HD
ATOM     60  H   UNL     1     143.382 164.268 185.700  0.00  0.00    +0.062 HD
ATOM     61  H   UNL     1     140.953 164.383 186.186  0.00  0.00    +0.062 HD
ATOM     62  H   UNL     1     140.071 166.153 187.683  0.00  0.00    +0.062 HD
ATOM     63  H   UNL     1     141.602 167.794 188.703  0.00  0.00    +0.062 HD
ENDBRANCH  50  53
ENDBRANCH  21  50
BRANCH  15  64
ATOM     64  O   UNL     1     151.637 168.242 191.009  0.00  0.00    -0.377 OA
ATOM     65  H   UNL     1     150.762 168.642 190.880  0.00  0.00    +0.211 HD
ENDBRANCH  15  64
BRANCH   6  66
ATOM     66  O   UNL     1     146.303 165.393 194.234  0.00  0.00    -0.387 OA
ATOM     67  H   UNL     1     145.434 165.224 194.637  0.00  0.00    +0.210 HD
ENDBRANCH   6  66
BRANCH  12  68
ATOM     68  O   UNL     1     147.789 165.436 189.280  0.00  0.00    -0.456 OA
BRANCH  68  69
ATOM     69  C   UNL     1     147.446 165.088 188.012  0.00  0.00    +0.305 C 
ATOM     70  O   UNL     1     147.656 165.751 187.007  0.00  0.00    -0.251 OA
BRANCH  69  71
ATOM     71  C   UNL     1     146.735 163.769 188.021  0.00  0.00    +0.033 C 
ATOM     72  H   UNL     1     146.771 163.331 187.020  0.00  0.00    +0.034 HD
ATOM     73  H   UNL     1     147.229 163.086 188.716  0.00  0.00    +0.034 HD
ATOM     74  H   UNL     1     145.689 163.915 188.304  0.00  0.00    +0.034 HD
ENDBRANCH  69  71
ENDBRANCH  68  69
ENDBRANCH  12  68
TORSDOF 10
ENDMDL
MODEL 6
REMARK VINA RESULT:      -6.4      2.660      5.641
REMARK  Name = Cytochalasin D_conf3
REMARK  10 active torsions:
REMARK  status: ('A' for Active; 'I' for Inactive)
REMARK    1  A    between atoms: C_1  and  C_2
REMARK    2  A    between atoms: C_7  and  O_37
REMARK    3  A    between atoms: C_10  and  C_36
REMARK    4  A    between atoms: C_13  and  O_21
REMARK    5  A    between atoms: C_16  and  C_19
REMARK    6  A    between atoms: C_16  and  O_20
REMARK    7  A    between atoms: O_21  and  C_22
REMARK    8  A    between atoms: C_22  and  C_24
REMARK    9  A    between atoms: C_28  and  C_29
REMARK   10  A    between atoms: C_29  and  C_30
REMARK                            x       y       z     vdW  Elec       q    Type
REMARK                         _______ _______ _______ _____ _____    ______ ____
ROOT
ATOM      1  C   UNL     1     153.924 165.835 186.952  0.00  0.00    +0.021 C 
ATOM      2  C   UNL     1     152.522 165.826 186.324  0.00  0.00    -0.025 C 
ATOM      3  C   UNL     1     151.555 166.825 186.904  0.00  0.00    -0.087 C 
ATOM      4  C   UNL     1     150.290 166.502 187.232  0.00  0.00    -0.081 C 
ATOM      5  C   UNL     1     149.278 167.439 187.893  0.00  0.00    +0.025 C 
ATOM      6  C   UNL     1     148.183 167.769 186.829  0.00  0.00    +0.084 C 
ATOM      7  C   UNL     1     146.955 168.433 187.404  0.00  0.00    -0.045 C 
ATOM      8  C   UNL     1     145.784 168.409 186.743  0.00  0.00    -0.097 C 
ATOM      9  C   UNL     1     147.184 169.070 188.754  0.00  0.00    -0.015 C 
ATOM     10  C   UNL     1     147.542 167.966 189.787  0.00  0.00    +0.002 C 
ATOM     11  C   UNL     1     148.642 166.942 189.246  0.00  0.00    +0.101 C 
ATOM     12  C   UNL     1     149.674 166.660 190.392  0.00  0.00    +0.136 C 
ATOM     13  C   UNL     1     150.763 165.659 190.052  0.00  0.00    -0.044 C 
ATOM     14  C   UNL     1     152.082 165.922 189.984  0.00  0.00    -0.046 C 
ATOM     15  C   UNL     1     153.182 165.045 189.414  0.00  0.00    +0.139 C 
ATOM     16  C   UNL     1     154.005 165.980 188.473  0.00  0.00    +0.171 C 
ATOM     17  O   UNL     1     154.728 166.872 188.942  0.00  0.00    -0.294 OA
ATOM     18  C   UNL     1     147.820 165.679 189.027  0.00  0.00    +0.224 C 
ATOM     19  O   UNL     1     148.174 164.666 188.447  0.00  0.00    -0.275 OA
ATOM     20  N   UNL     1     146.592 165.813 189.607  0.00  0.00    -0.311 N 
ATOM     21  C   UNL     1     146.338 167.089 190.216  0.00  0.00    +0.032 C 
ATOM     22  H   UNL     1     154.427 166.732 186.559  0.00  0.00    +0.038 HD
ATOM     23  H   UNL     1     152.096 164.816 186.363  0.00  0.00    +0.031 HD
ATOM     24  H   UNL     1     152.628 166.055 185.254  0.00  0.00    +0.031 HD
ATOM     25  H   UNL     1     151.923 167.834 187.079  0.00  0.00    +0.057 HD
ATOM     26  H   UNL     1     149.938 165.493 187.018  0.00  0.00    +0.057 HD
ATOM     27  H   UNL     1     149.820 168.370 188.115  0.00  0.00    +0.038 HD
ATOM     28  H   UNL     1     147.885 166.859 186.290  0.00  0.00    +0.065 HD
ATOM     29  H   UNL     1     145.704 167.936 185.768  0.00  0.00    +0.054 HD
ATOM     30  H   UNL     1     144.882 168.874 187.127  0.00  0.00    +0.054 HD
ATOM     31  H   UNL     1     148.068 169.715 188.650  0.00  0.00    +0.035 HD
ATOM     32  H   UNL     1     147.920 168.506 190.661  0.00  0.00    +0.034 HD
ATOM     33  H   UNL     1     149.137 166.241 191.251  0.00  0.00    +0.079 HD
ATOM     34  H   UNL     1     150.401 164.665 189.795  0.00  0.00    +0.061 HD
ATOM     35  H   UNL     1     152.430 166.913 190.281  0.00  0.00    +0.060 HD
ATOM     36  H   UNL     1     145.914 165.061 189.540  0.00  0.00    +0.149 HD
ATOM     37  H   UNL     1     145.397 167.436 189.783  0.00  0.00    +0.050 HD
ENDROOT
BRANCH   1  38
ATOM     38  C   UNL     1     154.754 164.637 186.496  0.00  0.00    -0.055 C 
ATOM     39  H   UNL     1     154.527 164.378 185.455  0.00  0.00    +0.024 HD
ATOM     40  H   UNL     1     154.541 163.761 187.116  0.00  0.00    +0.024 HD
ATOM     41  H   UNL     1     155.827 164.839 186.557  0.00  0.00    +0.024 HD
ENDBRANCH   1  38
BRANCH  15  42
ATOM     42  C   UNL     1     154.096 164.553 190.537  0.00  0.00    -0.025 C 
ATOM     43  H   UNL     1     153.828 164.976 191.512  0.00  0.00    +0.026 HD
ATOM     44  H   UNL     1     155.138 164.825 190.330  0.00  0.00    +0.026 HD
ATOM     45  H   UNL     1     154.067 163.460 190.618  0.00  0.00    +0.026 HD
ENDBRANCH  15  42
BRANCH   9  46
ATOM     46  C   UNL     1     146.090 170.025 189.249  0.00  0.00    -0.058 C 
ATOM     47  H   UNL     1     145.929 169.899 190.325  0.00  0.00    +0.024 HD
ATOM     48  H   UNL     1     145.130 169.879 188.745  0.00  0.00    +0.024 HD
ATOM     49  H   UNL     1     146.389 171.067 189.085  0.00  0.00    +0.024 HD
ENDBRANCH   9  46
BRANCH  21  50
ATOM     50  C   UNL     1     146.171 166.935 191.741  0.00  0.00    -0.009 C 
ATOM     51  H   UNL     1     146.669 166.012 192.073  0.00  0.00    +0.033 HD
ATOM     52  H   UNL     1     146.692 167.742 192.269  0.00  0.00    +0.033 HD
BRANCH  50  53
ATOM     53  C   UNL     1     144.731 166.862 192.189  0.00  0.00    -0.046 A 
ATOM     54  C   UNL     1     143.711 167.394 191.390  0.00  0.00    -0.059 A 
ATOM     55  C   UNL     1     142.378 167.316 191.798  0.00  0.00    -0.062 A 
ATOM     56  C   UNL     1     142.052 166.714 193.011  0.00  0.00    -0.062 A 
ATOM     57  C   UNL     1     143.060 166.195 193.821  0.00  0.00    -0.062 A 
ATOM     58  C   UNL     1     144.393 166.272 193.415  0.00  0.00    -0.059 A 
ATOM     59  H   UNL     1     143.945 167.882 190.446  0.00  0.00    +0.062 HD
ATOM     60  H   UNL     1     141.594 167.735 191.171  0.00  0.00    +0.062 HD
ATOM     61  H   UNL     1     141.015 166.657 193.329  0.00  0.00    +0.062 HD
ATOM     62  H   UNL     1     142.808 165.734 194.773  0.00  0.00    +0.062 HD
ATOM     63  H   UNL     1     145.166 165.869 194.066  0.00  0.00    +0.062 HD
ENDBRANCH  50  53
ENDBRANCH  21  50
BRANCH  15  64
ATOM     64  O   UNL     1     152.656 163.889 188.787  0.00  0.00    -0.377 OA
ATOM     65  H   UNL     1     151.687 163.945 188.808  0.00  0.00    +0.211 HD
ENDBRANCH  15  64
BRANCH   6  66
ATOM     66  O   UNL     1     148.722 168.684 185.872  0.00  0.00    -0.387 OA
ATOM     67  H   UNL     1     147.966 169.054 185.384  0.00  0.00    +0.210 HD
ENDBRANCH   6  66
BRANCH  12  68
ATOM     68  O   UNL     1     150.292 167.922 190.740  0.00  0.00    -0.456 OA
BRANCH  68  69
ATOM     69  C   UNL     1     150.299 168.268 192.055  0.00  0.00    +0.305 C 
ATOM     70  O   UNL     1     149.718 167.677 192.953  0.00  0.00    -0.251 OA
BRANCH  69  71
ATOM     71  C   UNL     1     151.108 169.514 192.248  0.00  0.00    +0.033 C 
ATOM     72  H   UNL     1     151.292 169.666 193.315  0.00  0.00    +0.034 HD
ATOM     73  H   UNL     1     152.072 169.413 191.742  0.00  0.00    +0.034 HD
ATOM     74  H   UNL     1     150.559 170.376 191.859  0.00  0.00    +0.034 HD
ENDBRANCH  69  71
ENDBRANCH  68  69
ENDBRANCH  12  68
TORSDOF 10
ENDMDL
MODEL 7
REMARK VINA RESULT:      -6.3      2.406      8.221
REMARK  Name = Cytochalasin D_conf3
REMARK  10 active torsions:
REMARK  status: ('A' for Active; 'I' for Inactive)
REMARK    1  A    between atoms: C_1  and  C_2
REMARK    2  A    between atoms: C_7  and  O_37
REMARK    3  A    between atoms: C_10  and  C_36
REMARK    4  A    between atoms: C_13  and  O_21
REMARK    5  A    between atoms: C_16  and  C_19
REMARK    6  A    between atoms: C_16  and  O_20
REMARK    7  A    between atoms: O_21  and  C_22
REMARK    8  A    between atoms: C_22  and  C_24
REMARK    9  A    between atoms: C_28  and  C_29
REMARK   10  A    between atoms: C_29  and  C_30
REMARK                            x       y       z     vdW  Elec       q    Type
REMARK                         _______ _______ _______ _____ _____    ______ ____
ROOT
ATOM      1  C   UNL     1     147.317 168.701 190.817  0.00  0.00    +0.021 C 
ATOM      2  C   UNL     1     147.856 168.091 189.514  0.00  0.00    -0.025 C 
ATOM      3  C   UNL     1     148.744 166.887 189.692  0.00  0.00    -0.087 C 
ATOM      4  C   UNL     1     149.911 166.744 189.037  0.00  0.00    -0.081 C 
ATOM      5  C   UNL     1     150.897 165.590 189.221  0.00  0.00    +0.025 C 
ATOM      6  C   UNL     1     150.857 164.729 187.919  0.00  0.00    +0.084 C 
ATOM      7  C   UNL     1     151.985 163.730 187.814  0.00  0.00    -0.045 C 
ATOM      8  C   UNL     1     152.344 163.217 186.624  0.00  0.00    -0.097 C 
ATOM      9  C   UNL     1     152.645 163.416 189.136  0.00  0.00    -0.015 C 
ATOM     10  C   UNL     1     153.320 164.701 189.689  0.00  0.00    +0.002 C 
ATOM     11  C   UNL     1     152.372 165.984 189.612  0.00  0.00    +0.101 C 
ATOM     12  C   UNL     1     152.505 166.789 190.950  0.00  0.00    +0.136 C 
ATOM     13  C   UNL     1     151.699 168.075 191.016  0.00  0.00    -0.044 C 
ATOM     14  C   UNL     1     150.687 168.328 191.867  0.00  0.00    -0.046 C 
ATOM     15  C   UNL     1     149.691 169.472 191.822  0.00  0.00    +0.139 C 
ATOM     16  C   UNL     1     148.290 168.804 191.993  0.00  0.00    +0.171 C 
ATOM     17  O   UNL     1     147.947 168.327 193.086  0.00  0.00    -0.294 OA
ATOM     18  C   UNL     1     153.027 166.797 188.503  0.00  0.00    +0.224 C 
ATOM     19  O   UNL     1     152.568 167.781 187.946  0.00  0.00    -0.275 OA
ATOM     20  N   UNL     1     154.258 166.285 188.211  0.00  0.00    -0.311 N 
ATOM     21  C   UNL     1     154.619 165.103 188.944  0.00  0.00    +0.032 C 
ATOM     22  H   UNL     1     146.527 168.019 191.169  0.00  0.00    +0.038 HD
ATOM     23  H   UNL     1     148.368 168.858 188.921  0.00  0.00    +0.031 HD
ATOM     24  H   UNL     1     146.997 167.778 188.905  0.00  0.00    +0.031 HD
ATOM     25  H   UNL     1     148.421 166.127 190.402  0.00  0.00    +0.057 HD
ATOM     26  H   UNL     1     150.195 167.504 188.309  0.00  0.00    +0.057 HD
ATOM     27  H   UNL     1     150.501 164.975 190.043  0.00  0.00    +0.038 HD
ATOM     28  H   UNL     1     150.860 165.374 187.031  0.00  0.00    +0.065 HD
ATOM     29  H   UNL     1     151.811 163.489 185.717  0.00  0.00    +0.054 HD
ATOM     30  H   UNL     1     153.150 162.500 186.511  0.00  0.00    +0.054 HD
ATOM     31  H   UNL     1     151.837 163.149 189.833  0.00  0.00    +0.035 HD
ATOM     32  H   UNL     1     153.564 164.469 190.730  0.00  0.00    +0.034 HD
ATOM     33  H   UNL     1     153.553 167.084 191.079  0.00  0.00    +0.079 HD
ATOM     34  H   UNL     1     151.958 168.811 190.258  0.00  0.00    +0.061 HD
ATOM     35  H   UNL     1     150.465 167.593 192.644  0.00  0.00    +0.060 HD
ATOM     36  H   UNL     1     154.823 166.705 187.481  0.00  0.00    +0.149 HD
ATOM     37  H   UNL     1     154.907 164.369 188.187  0.00  0.00    +0.050 HD
ENDROOT
BRANCH   1  38
ATOM     38  C   UNL     1     146.648 170.052 190.573  0.00  0.00    -0.055 C 
ATOM     39  H   UNL     1     146.016 170.018 189.678  0.00  0.00    +0.024 HD
ATOM     40  H   UNL     1     147.399 170.834 190.427  0.00  0.00    +0.024 HD
ATOM     41  H   UNL     1     146.013 170.349 191.413  0.00  0.00    +0.024 HD
ENDBRANCH   1  38
BRANCH  15  42
ATOM     42  C   UNL     1     149.928 170.421 192.997  0.00  0.00    -0.025 C 
ATOM     43  H   UNL     1     150.625 170.009 193.736  0.00  0.00    +0.026 HD
ATOM     44  H   UNL     1     148.984 170.637 193.512  0.00  0.00    +0.026 HD
ATOM     45  H   UNL     1     150.324 171.384 192.652  0.00  0.00    +0.026 HD
ENDBRANCH  15  42
BRANCH   9  46
ATOM     46  C   UNL     1     153.569 162.192 189.160  0.00  0.00    -0.058 C 
ATOM     47  H   UNL     1     154.423 162.344 188.491  0.00  0.00    +0.024 HD
ATOM     48  H   UNL     1     153.067 161.268 188.861  0.00  0.00    +0.024 HD
ATOM     49  H   UNL     1     153.970 162.035 190.168  0.00  0.00    +0.024 HD
ENDBRANCH   9  46
BRANCH  21  50
ATOM     50  C   UNL     1     155.823 165.385 189.864  0.00  0.00    -0.009 C 
ATOM     51  H   UNL     1     156.149 166.427 189.731  0.00  0.00    +0.033 HD
ATOM     52  H   UNL     1     155.528 165.315 190.917  0.00  0.00    +0.033 HD
BRANCH  50  53
ATOM     53  C   UNL     1     157.013 164.496 189.595  0.00  0.00    -0.046 A 
ATOM     54  C   UNL     1     157.369 164.164 188.282  0.00  0.00    -0.059 A 
ATOM     55  C   UNL     1     158.477 163.351 188.032  0.00  0.00    -0.062 A 
ATOM     56  C   UNL     1     159.234 162.858 189.091  0.00  0.00    -0.062 A 
ATOM     57  C   UNL     1     158.881 163.169 190.403  0.00  0.00    -0.062 A 
ATOM     58  C   UNL     1     157.774 163.980 190.654  0.00  0.00    -0.059 A 
ATOM     59  H   UNL     1     156.782 164.526 187.441  0.00  0.00    +0.062 HD
ATOM     60  H   UNL     1     158.743 163.098 187.009  0.00  0.00    +0.062 HD
ATOM     61  H   UNL     1     160.094 162.223 188.896  0.00  0.00    +0.062 HD
ATOM     62  H   UNL     1     159.466 162.776 191.230  0.00  0.00    +0.062 HD
ATOM     63  H   UNL     1     157.509 164.206 191.685  0.00  0.00    +0.062 HD
ENDBRANCH  50  53
ENDBRANCH  21  50
BRANCH  15  64
ATOM     64  O   UNL     1     149.837 170.245 190.644  0.00  0.00    -0.377 OA
ATOM     65  H   UNL     1     149.581 171.159 190.846  0.00  0.00    +0.211 HD
ENDBRANCH  15  64
BRANCH   6  66
ATOM     66  O   UNL     1     149.647 163.968 187.899  0.00  0.00    -0.387 OA
ATOM     67  H   UNL     1     149.343 163.951 186.975  0.00  0.00    +0.210 HD
ENDBRANCH   6  66
BRANCH  12  68
ATOM     68  O   UNL     1     152.081 165.918 192.025  0.00  0.00    -0.456 OA
BRANCH  68  69
ATOM     69  C   UNL     1     152.596 166.159 193.260  0.00  0.00    +0.305 C 
ATOM     70  O   UNL     1     153.686 166.659 193.495  0.00  0.00    -0.251 OA
BRANCH  69  71
ATOM     71  C   UNL     1     151.637 165.691 194.311  0.00  0.00    +0.033 C 
ATOM     72  H   UNL     1     150.722 165.330 193.833  0.00  0.00    +0.034 HD
ATOM     73  H   UNL     1     152.079 164.867 194.877  0.00  0.00    +0.034 HD
ATOM     74  H   UNL     1     151.382 166.521 194.976  0.00  0.00    +0.034 HD
ENDBRANCH  69  71
ENDBRANCH  68  69
ENDBRANCH  12  68
TORSDOF 10
ENDMDL
MODEL 8
REMARK VINA RESULT:      -6.3      2.955      6.387
REMARK  Name = Cytochalasin D_conf3
REMARK  10 active torsions:
REMARK  status: ('A' for Active; 'I' for Inactive)
REMARK    1  A    between atoms: C_1  and  C_2
REMARK    2  A    between atoms: C_7  and  O_37
REMARK    3  A    between atoms: C_10  and  C_36
REMARK    4  A    between atoms: C_13  and  O_21
REMARK    5  A    between atoms: C_16  and  C_19
REMARK    6  A    between atoms: C_16  and  O_20
REMARK    7  A    between atoms: O_21  and  C_22
REMARK    8  A    between atoms: C_22  and  C_24
REMARK    9  A    between atoms: C_28  and  C_29
REMARK   10  A    between atoms: C_29  and  C_30
REMARK                            x       y       z     vdW  Elec       q    Type
REMARK                         _______ _______ _______ _____ _____    ______ ____
ROOT
ATOM      1  C   UNL     1     145.108 162.798 186.994  0.00  0.00    +0.021 C 
ATOM      2  C   UNL     1     146.343 163.646 186.656  0.00  0.00    -0.025 C 
ATOM      3  C   UNL     1     147.243 163.958 187.823  0.00  0.00    -0.087 C 
ATOM      4  C   UNL     1     147.730 165.192 188.053  0.00  0.00    -0.081 C 
ATOM      5  C   UNL     1     148.585 165.599 189.254  0.00  0.00    +0.025 C 
ATOM      6  C   UNL     1     150.027 165.881 188.727  0.00  0.00    +0.084 C 
ATOM      7  C   UNL     1     150.915 166.583 189.726  0.00  0.00    -0.045 C 
ATOM      8  C   UNL     1     152.007 167.258 189.325  0.00  0.00    -0.097 C 
ATOM      9  C   UNL     1     150.436 166.464 191.154  0.00  0.00    -0.015 C 
ATOM     10  C   UNL     1     149.063 167.176 191.294  0.00  0.00    +0.002 C 
ATOM     11  C   UNL     1     148.042 166.793 190.128  0.00  0.00    +0.101 C 
ATOM     12  C   UNL     1     146.625 166.555 190.757  0.00  0.00    +0.136 C 
ATOM     13  C   UNL     1     145.523 166.229 189.766  0.00  0.00    -0.044 C 
ATOM     14  C   UNL     1     144.835 165.073 189.704  0.00  0.00    -0.046 C 
ATOM     15  C   UNL     1     143.911 164.594 188.600  0.00  0.00    +0.139 C 
ATOM     16  C   UNL     1     144.366 163.133 188.289  0.00  0.00    +0.171 C 
ATOM     17  O   UNL     1     144.149 162.218 189.098  0.00  0.00    -0.294 OA
ATOM     18  C   UNL     1     147.989 168.079 189.315  0.00  0.00    +0.224 C 
ATOM     19  O   UNL     1     147.485 168.231 188.215  0.00  0.00    -0.275 OA
ATOM     20  N   UNL     1     148.579 169.096 190.009  0.00  0.00    -0.311 N 
ATOM     21  C   UNL     1     149.149 168.724 191.274  0.00  0.00    +0.032 C 
ATOM     22  H   UNL     1     145.475 161.770 187.141  0.00  0.00    +0.038 HD
ATOM     23  H   UNL     1     146.040 164.570 186.150  0.00  0.00    +0.031 HD
ATOM     24  H   UNL     1     146.942 163.094 185.918  0.00  0.00    +0.031 HD
ATOM     25  H   UNL     1     147.475 163.144 188.508  0.00  0.00    +0.057 HD
ATOM     26  H   UNL     1     147.508 165.981 187.335  0.00  0.00    +0.057 HD
ATOM     27  H   UNL     1     148.634 164.717 189.910  0.00  0.00    +0.038 HD
ATOM     28  H   UNL     1     149.989 166.469 187.800  0.00  0.00    +0.065 HD
ATOM     29  H   UNL     1     152.289 167.289 188.276  0.00  0.00    +0.054 HD
ATOM     30  H   UNL     1     152.666 167.774 190.015  0.00  0.00    +0.054 HD
ATOM     31  H   UNL     1     150.266 165.393 191.338  0.00  0.00    +0.035 HD
ATOM     32  H   UNL     1     148.673 166.853 192.264  0.00  0.00    +0.034 HD
ATOM     33  H   UNL     1     146.311 167.473 191.267  0.00  0.00    +0.079 HD
ATOM     34  H   UNL     1     145.337 167.004 189.024  0.00  0.00    +0.061 HD
ATOM     35  H   UNL     1     145.008 164.324 190.478  0.00  0.00    +0.060 HD
ATOM     36  H   UNL     1     148.640 170.022 189.599  0.00  0.00    +0.149 HD
ATOM     37  H   UNL     1     150.181 169.081 191.244  0.00  0.00    +0.050 HD
ENDROOT
BRANCH   1  38
ATOM     38  C   UNL     1     144.124 162.744 185.827  0.00  0.00    -0.055 C 
ATOM     39  H   UNL     1     144.632 162.449 184.902  0.00  0.00    +0.024 HD
ATOM     40  H   UNL     1     143.665 163.724 185.663  0.00  0.00    +0.024 HD
ATOM     41  H   UNL     1     143.320 162.023 186.005  0.00  0.00    +0.024 HD
ENDBRANCH   1  38
BRANCH  15  42
ATOM     42  C   UNL     1     142.466 164.560 189.102  0.00  0.00    -0.025 C 
ATOM     43  H   UNL     1     142.175 163.571 189.477  0.00  0.00    +0.026 HD
ATOM     44  H   UNL     1     141.773 164.829 188.296  0.00  0.00    +0.026 HD
ATOM     45  H   UNL     1     142.311 165.290 189.906  0.00  0.00    +0.026 HD
ENDBRANCH  15  42
BRANCH   9  46
ATOM     46  C   UNL     1     151.439 166.869 192.242  0.00  0.00    -0.058 C 
ATOM     47  H   UNL     1     151.393 166.169 193.084  0.00  0.00    +0.024 HD
ATOM     48  H   UNL     1     151.268 167.876 192.632  0.00  0.00    +0.024 HD
ATOM     49  H   UNL     1     152.462 166.839 191.850  0.00  0.00    +0.024 HD
ENDBRANCH   9  46
BRANCH  21  50
ATOM     50  C   UNL     1     148.402 169.421 192.428  0.00  0.00    -0.009 C 
ATOM     51  H   UNL     1     147.336 169.155 192.387  0.00  0.00    +0.033 HD
ATOM     52  H   UNL     1     148.750 169.043 193.396  0.00  0.00    +0.033 HD
BRANCH  50  53
ATOM     53  C   UNL     1     148.498 170.927 192.391  0.00  0.00    -0.046 A 
ATOM     54  C   UNL     1     149.649 171.577 192.855  0.00  0.00    -0.059 A 
ATOM     55  C   UNL     1     149.744 172.969 192.810  0.00  0.00    -0.062 A 
ATOM     56  C   UNL     1     148.688 173.725 192.309  0.00  0.00    -0.062 A 
ATOM     57  C   UNL     1     147.531 173.091 191.859  0.00  0.00    -0.062 A 
ATOM     58  C   UNL     1     147.435 171.700 191.904  0.00  0.00    -0.059 A 
ATOM     59  H   UNL     1     150.480 171.006 193.265  0.00  0.00    +0.062 HD
ATOM     60  H   UNL     1     150.641 173.463 193.175  0.00  0.00    +0.062 HD
ATOM     61  H   UNL     1     148.761 174.808 192.278  0.00  0.00    +0.062 HD
ATOM     62  H   UNL     1     146.703 173.681 191.476  0.00  0.00    +0.062 HD
ATOM     63  H   UNL     1     146.521 171.223 191.555  0.00  0.00    +0.062 HD
ENDBRANCH  50  53
ENDBRANCH  21  50
BRANCH  15  64
ATOM     64  O   UNL     1     143.929 165.468 187.486  0.00  0.00    -0.377 OA
ATOM     65  H   UNL     1     144.292 166.321 187.774  0.00  0.00    +0.211 HD
ENDBRANCH  15  64
BRANCH   6  66
ATOM     66  O   UNL     1     150.666 164.639 188.427  0.00  0.00    -0.387 OA
ATOM     67  H   UNL     1     151.625 164.807 188.442  0.00  0.00    +0.210 HD
ENDBRANCH   6  66
BRANCH  12  68
ATOM     68  O   UNL     1     146.745 165.461 191.697  0.00  0.00    -0.456 OA
BRANCH  68  69
ATOM     69  C   UNL     1     146.286 165.674 192.959  0.00  0.00    +0.305 C 
ATOM     70  O   UNL     1     145.169 166.072 193.256  0.00  0.00    -0.251 OA
BRANCH  69  71
ATOM     71  C   UNL     1     147.368 165.376 193.951  0.00  0.00    +0.033 C 
ATOM     72  H   UNL     1     147.263 166.040 194.813  0.00  0.00    +0.034 HD
ATOM     73  H   UNL     1     147.280 164.343 194.298  0.00  0.00    +0.034 HD
ATOM     74  H   UNL     1     148.347 165.545 193.493  0.00  0.00    +0.034 HD
ENDBRANCH  69  71
ENDBRANCH  68  69
ENDBRANCH  12  68
TORSDOF 10
ENDMDL
MODEL 9
REMARK VINA RESULT:      -6.2      6.968      9.861
REMARK  Name = Cytochalasin D_conf3
REMARK  10 active torsions:
REMARK  status: ('A' for Active; 'I' for Inactive)
REMARK    1  A    between atoms: C_1  and  C_2
REMARK    2  A    between atoms: C_7  and  O_37
REMARK    3  A    between atoms: C_10  and  C_36
REMARK    4  A    between atoms: C_13  and  O_21
REMARK    5  A    between atoms: C_16  and  C_19
REMARK    6  A    between atoms: C_16  and  O_20
REMARK    7  A    between atoms: O_21  and  C_22
REMARK    8  A    between atoms: C_22  and  C_24
REMARK    9  A    between atoms: C_28  and  C_29
REMARK   10  A    between atoms: C_29  and  C_30
REMARK                            x       y       z     vdW  Elec       q    Type
REMARK                         _______ _______ _______ _____ _____    ______ ____
ROOT
ATOM      1  C   UNL     1     148.620 171.183 191.887  0.00  0.00    +0.021 C 
ATOM      2  C   UNL     1     147.721 172.334 191.408  0.00  0.00    -0.025 C 
ATOM      3  C   UNL     1     146.282 172.244 191.844  0.00  0.00    -0.087 C 
ATOM      4  C   UNL     1     145.255 172.455 191.000  0.00  0.00    -0.081 C 
ATOM      5  C   UNL     1     143.773 172.309 191.350  0.00  0.00    +0.025 C 
ATOM      6  C   UNL     1     143.153 173.742 191.362  0.00  0.00    +0.084 C 
ATOM      7  C   UNL     1     141.643 173.752 191.392  0.00  0.00    -0.045 C 
ATOM      8  C   UNL     1     140.952 174.836 190.996  0.00  0.00    -0.097 C 
ATOM      9  C   UNL     1     141.035 172.454 191.867  0.00  0.00    -0.015 C 
ATOM     10  C   UNL     1     141.392 171.323 190.864  0.00  0.00    +0.002 C 
ATOM     11  C   UNL     1     142.936 171.321 190.453  0.00  0.00    +0.101 C 
ATOM     12  C   UNL     1     143.453 169.841 190.447  0.00  0.00    +0.136 C 
ATOM     13  C   UNL     1     144.900 169.662 190.023  0.00  0.00    -0.044 C 
ATOM     14  C   UNL     1     145.895 169.189 190.798  0.00  0.00    -0.046 C 
ATOM     15  C   UNL     1     147.387 169.219 190.525  0.00  0.00    +0.139 C 
ATOM     16  C   UNL     1     148.032 169.772 191.834  0.00  0.00    +0.171 C 
ATOM     17  O   UNL     1     148.065 169.081 192.864  0.00  0.00    -0.294 OA
ATOM     18  C   UNL     1     142.882 171.811 189.013  0.00  0.00    +0.224 C 
ATOM     19  O   UNL     1     143.825 172.152 188.318  0.00  0.00    -0.275 OA
ATOM     20  N   UNL     1     141.594 171.795 188.560  0.00  0.00    -0.311 N 
ATOM     21  C   UNL     1     140.611 171.395 189.527  0.00  0.00    +0.032 C 
ATOM     22  H   UNL     1     148.806 171.368 192.957  0.00  0.00    +0.038 HD
ATOM     23  H   UNL     1     147.784 172.435 190.318  0.00  0.00    +0.031 HD
ATOM     24  H   UNL     1     148.128 173.272 191.811  0.00  0.00    +0.031 HD
ATOM     25  H   UNL     1     146.089 171.973 192.880  0.00  0.00    +0.057 HD
ATOM     26  H   UNL     1     145.476 172.757 189.976  0.00  0.00    +0.057 HD
ATOM     27  H   UNL     1     143.737 171.919 192.378  0.00  0.00    +0.038 HD
ATOM     28  H   UNL     1     143.503 174.320 190.497  0.00  0.00    +0.065 HD
ATOM     29  H   UNL     1     141.466 175.737 190.674  0.00  0.00    +0.054 HD
ATOM     30  H   UNL     1     139.868 174.877 191.002  0.00  0.00    +0.054 HD
ATOM     31  H   UNL     1     141.527 172.208 192.820  0.00  0.00    +0.035 HD
ATOM     32  H   UNL     1     141.133 170.393 191.379  0.00  0.00    +0.034 HD
ATOM     33  H   UNL     1     142.856 169.265 189.730  0.00  0.00    +0.079 HD
ATOM     34  H   UNL     1     145.123 170.006 189.016  0.00  0.00    +0.061 HD
ATOM     35  H   UNL     1     145.645 168.814 191.792  0.00  0.00    +0.060 HD
ATOM     36  H   UNL     1     141.383 172.107 187.618  0.00  0.00    +0.149 HD
ATOM     37  H   UNL     1     139.862 172.192 189.527  0.00  0.00    +0.050 HD
ENDROOT
BRANCH   1  38
ATOM     38  C   UNL     1     149.983 171.209 191.199  0.00  0.00    -0.055 C 
ATOM     39  H   UNL     1     150.789 171.314 191.933  0.00  0.00    +0.024 HD
ATOM     40  H   UNL     1     150.048 172.051 190.503  0.00  0.00    +0.024 HD
ATOM     41  H   UNL     1     150.170 170.291 190.634  0.00  0.00    +0.024 HD
ENDBRANCH   1  38
BRANCH  15  42
ATOM     42  C   UNL     1     147.906 167.800 190.285  0.00  0.00    -0.025 C 
ATOM     43  H   UNL     1     148.911 167.647 190.694  0.00  0.00    +0.026 HD
ATOM     44  H   UNL     1     147.945 167.583 189.211  0.00  0.00    +0.026 HD
ATOM     45  H   UNL     1     147.236 167.055 190.732  0.00  0.00    +0.026 HD
ENDBRANCH  15  42
BRANCH   9  46
ATOM     46  C   UNL     1     139.544 172.493 192.225  0.00  0.00    -0.058 C 
ATOM     47  H   UNL     1     139.319 173.376 192.832  0.00  0.00    +0.024 HD
ATOM     48  H   UNL     1     139.211 171.610 192.778  0.00  0.00    +0.024 HD
ATOM     49  H   UNL     1     138.934 172.558 191.317  0.00  0.00    +0.024 HD
ENDBRANCH   9  46
BRANCH  21  50
ATOM     50  C   UNL     1     139.945 170.071 189.104  0.00  0.00    -0.009 C 
ATOM     51  H   UNL     1     140.010 169.961 188.012  0.00  0.00    +0.033 HD
ATOM     52  H   UNL     1     140.498 169.215 189.507  0.00  0.00    +0.033 HD
BRANCH  50  53
ATOM     53  C   UNL     1     138.487 169.975 189.485  0.00  0.00    -0.046 A 
ATOM     54  C   UNL     1     137.487 170.221 188.536  0.00  0.00    -0.059 A 
ATOM     55  C   UNL     1     136.138 170.122 188.885  0.00  0.00    -0.062 A 
ATOM     56  C   UNL     1     135.777 169.783 190.186  0.00  0.00    -0.062 A 
ATOM     57  C   UNL     1     136.763 169.551 191.143  0.00  0.00    -0.062 A 
ATOM     58  C   UNL     1     138.111 169.651 190.796  0.00  0.00    -0.059 A 
ATOM     59  H   UNL     1     137.747 170.502 187.517  0.00  0.00    +0.062 HD
ATOM     60  H   UNL     1     135.370 170.318 188.140  0.00  0.00    +0.062 HD
ATOM     61  H   UNL     1     134.728 169.709 190.457  0.00  0.00    +0.062 HD
ATOM     62  H   UNL     1     136.481 169.296 192.162  0.00  0.00    +0.062 HD
ATOM     63  H   UNL     1     138.866 169.474 191.560  0.00  0.00    +0.062 HD
ENDBRANCH  50  53
ENDBRANCH  21  50
BRANCH  15  64
ATOM     64  O   UNL     1     147.689 169.962 189.357  0.00  0.00    -0.377 OA
ATOM     65  H   UNL     1     147.188 169.583 188.617  0.00  0.00    +0.211 HD
ENDBRANCH  15  64
BRANCH   6  66
ATOM     66  O   UNL     1     143.580 174.426 192.543  0.00  0.00    -0.387 OA
ATOM     67  H   UNL     1     143.719 175.356 192.291  0.00  0.00    +0.210 HD
ENDBRANCH   6  66
BRANCH  12  68
ATOM     68  O   UNL     1     143.290 169.318 191.786  0.00  0.00    -0.456 OA
BRANCH  68  69
ATOM     69  C   UNL     1     142.584 168.165 191.921  0.00  0.00    +0.305 C 
ATOM     70  O   UNL     1     141.702 167.774 191.170  0.00  0.00    -0.251 OA
BRANCH  69  71
ATOM     71  C   UNL     1     143.022 167.442 193.158  0.00  0.00    +0.033 C 
ATOM     72  H   UNL     1     143.676 168.092 193.746  0.00  0.00    +0.034 HD
ATOM     73  H   UNL     1     142.152 167.185 193.767  0.00  0.00    +0.034 HD
ATOM     74  H   UNL     1     143.578 166.541 192.882  0.00  0.00    +0.034 HD
ENDBRANCH  69  71
ENDBRANCH  68  69
ENDBRANCH  12  68
TORSDOF 10
ENDMDL
MODEL 10
REMARK VINA RESULT:      -6.1      3.178      4.665
REMARK  Name = Cytochalasin D_conf3
REMARK  10 active torsions:
REMARK  status: ('A' for Active; 'I' for Inactive)
REMARK    1  A    between atoms: C_1  and  C_2
REMARK    2  A    between atoms: C_7  and  O_37
REMARK    3  A    between atoms: C_10  and  C_36
REMARK    4  A    between atoms: C_13  and  O_21
REMARK    5  A    between atoms: C_16  and  C_19
REMARK    6  A    between atoms: C_16  and  O_20
REMARK    7  A    between atoms: O_21  and  C_22
REMARK    8  A    between atoms: C_22  and  C_24
REMARK    9  A    between atoms: C_28  and  C_29
REMARK   10  A    between atoms: C_29  and  C_30
REMARK                            x       y       z     vdW  Elec       q    Type
REMARK                         _______ _______ _______ _____ _____    ______ ____
ROOT
ATOM      1  C   UNL     1     152.140 165.955 192.842  0.00  0.00    +0.021 C 
ATOM      2  C   UNL     1     150.885 166.507 193.535  0.00  0.00    -0.025 C 
ATOM      3  C   UNL     1     149.579 165.961 193.020  0.00  0.00    -0.087 C 
ATOM      4  C   UNL     1     148.522 166.749 192.745  0.00  0.00    -0.081 C 
ATOM      5  C   UNL     1     147.194 166.277 192.150  0.00  0.00    +0.025 C 
ATOM      6  C   UNL     1     146.113 166.397 193.269  0.00  0.00    +0.084 C 
ATOM      7  C   UNL     1     144.695 166.261 192.765  0.00  0.00    -0.045 C 
ATOM      8  C   UNL     1     143.660 166.736 193.479  0.00  0.00    -0.097 C 
ATOM      9  C   UNL     1     144.592 165.586 191.418  0.00  0.00    -0.015 C 
ATOM     10  C   UNL     1     145.297 166.466 190.349  0.00  0.00    +0.002 C 
ATOM     11  C   UNL     1     146.733 166.983 190.819  0.00  0.00    +0.101 C 
ATOM     12  C   UNL     1     147.735 166.844 189.621  0.00  0.00    +0.136 C 
ATOM     13  C   UNL     1     149.142 167.345 189.891  0.00  0.00    -0.044 C 
ATOM     14  C   UNL     1     150.259 166.592 189.902  0.00  0.00    -0.046 C 
ATOM     15  C   UNL     1     151.639 166.973 190.404  0.00  0.00    +0.139 C 
ATOM     16  C   UNL     1     152.082 165.792 191.323  0.00  0.00    +0.171 C 
ATOM     17  O   UNL     1     152.380 164.690 190.837  0.00  0.00    -0.294 OA
ATOM     18  C   UNL     1     146.477 168.465 191.053  0.00  0.00    +0.224 C 
ATOM     19  O   UNL     1     147.224 169.262 191.596  0.00  0.00    -0.275 OA
ATOM     20  N   UNL     1     145.265 168.819 190.533  0.00  0.00    -0.311 N 
ATOM     21  C   UNL     1     144.507 167.741 189.960  0.00  0.00    +0.032 C 
ATOM     22  H   UNL     1     152.276 164.933 193.228  0.00  0.00    +0.038 HD
ATOM     23  H   UNL     1     150.882 167.603 193.497  0.00  0.00    +0.031 HD
ATOM     24  H   UNL     1     150.948 166.253 194.603  0.00  0.00    +0.031 HD
ATOM     25  H   UNL     1     149.518 164.888 192.847  0.00  0.00    +0.057 HD
ATOM     26  H   UNL     1     148.599 167.815 192.957  0.00  0.00    +0.057 HD
ATOM     27  H   UNL     1     147.322 165.209 191.920  0.00  0.00    +0.038 HD
ATOM     28  H   UNL     1     146.217 167.350 193.805  0.00  0.00    +0.065 HD
ATOM     29  H   UNL     1     143.819 167.202 194.448  0.00  0.00    +0.054 HD
ATOM     30  H   UNL     1     142.631 166.657 193.147  0.00  0.00    +0.054 HD
ATOM     31  H   UNL     1     145.162 164.648 191.493  0.00  0.00    +0.035 HD
ATOM     32  H   UNL     1     145.393 165.823 189.469  0.00  0.00    +0.034 HD
ATOM     33  H   UNL     1     147.360 167.440 188.780  0.00  0.00    +0.079 HD
ATOM     34  H   UNL     1     149.206 168.401 190.146  0.00  0.00    +0.061 HD
ATOM     35  H   UNL     1     150.180 165.543 189.608  0.00  0.00    +0.060 HD
ATOM     36  H   UNL     1     144.935 169.774 190.618  0.00  0.00    +0.149 HD
ATOM     37  H   UNL     1     143.528 167.786 190.443  0.00  0.00    +0.050 HD
ENDROOT
BRANCH   1  38
ATOM     38  C   UNL     1     153.391 166.738 193.237  0.00  0.00    -0.055 C 
ATOM     39  H   UNL     1     154.218 166.059 193.473  0.00  0.00    +0.024 HD
ATOM     40  H   UNL     1     153.198 167.356 194.120  0.00  0.00    +0.024 HD
ATOM     41  H   UNL     1     153.728 167.399 192.432  0.00  0.00    +0.024 HD
ENDBRANCH   1  38
BRANCH  15  42
ATOM     42  C   UNL     1     152.615 167.073 189.230  0.00  0.00    -0.025 C 
ATOM     43  H   UNL     1     152.602 166.179 188.596  0.00  0.00    +0.026 HD
ATOM     44  H   UNL     1     153.640 167.209 189.594  0.00  0.00    +0.026 HD
ATOM     45  H   UNL     1     152.387 167.942 188.602  0.00  0.00    +0.026 HD
ENDBRANCH  15  42
BRANCH   9  46
ATOM     46  C   UNL     1     143.191 165.129 190.993  0.00  0.00    -0.058 C 
ATOM     47  H   UNL     1     142.536 165.994 190.840  0.00  0.00    +0.024 HD
ATOM     48  H   UNL     1     142.713 164.470 191.723  0.00  0.00    +0.024 HD
ATOM     49  H   UNL     1     143.237 164.585 190.043  0.00  0.00    +0.024 HD
ENDBRANCH   9  46
BRANCH  21  50
ATOM     50  C   UNL     1     144.336 167.949 188.442  0.00  0.00    -0.009 C 
ATOM     51  H   UNL     1     145.033 167.292 187.902  0.00  0.00    +0.033 HD
ATOM     52  H   UNL     1     143.339 167.629 188.119  0.00  0.00    +0.033 HD
BRANCH  50  53
ATOM     53  C   UNL     1     144.601 169.365 187.990  0.00  0.00    -0.046 A 
ATOM     54  C   UNL     1     143.630 170.360 188.164  0.00  0.00    -0.059 A 
ATOM     55  C   UNL     1     143.878 171.672 187.757  0.00  0.00    -0.062 A 
ATOM     56  C   UNL     1     145.095 172.001 187.166  0.00  0.00    -0.062 A 
ATOM     57  C   UNL     1     146.063 171.017 186.973  0.00  0.00    -0.062 A 
ATOM     58  C   UNL     1     145.816 169.705 187.379  0.00  0.00    -0.059 A 
ATOM     59  H   UNL     1     142.666 170.121 188.611  0.00  0.00    +0.062 HD
ATOM     60  H   UNL     1     143.116 172.435 187.896  0.00  0.00    +0.062 HD
ATOM     61  H   UNL     1     145.286 173.022 186.847  0.00  0.00    +0.062 HD
ATOM     62  H   UNL     1     147.009 171.272 186.503  0.00  0.00    +0.062 HD
ATOM     63  H   UNL     1     146.580 168.949 187.212  0.00  0.00    +0.062 HD
ENDBRANCH  50  53
ENDBRANCH  21  50
BRANCH  15  64
ATOM     64  O   UNL     1     151.634 168.242 191.033  0.00  0.00    -0.377 OA
ATOM     65  H   UNL     1     150.712 168.490 191.211  0.00  0.00    +0.211 HD
ENDBRANCH  15  64
BRANCH   6  66
ATOM     66  O   UNL     1     146.303 165.344 194.217  0.00  0.00    -0.387 OA
ATOM     67  H   UNL     1     145.762 164.594 193.914  0.00  0.00    +0.210 HD
ENDBRANCH   6  66
BRANCH  12  68
ATOM     68  O   UNL     1     147.798 165.442 189.268  0.00  0.00    -0.456 OA
BRANCH  68  69
ATOM     69  C   UNL     1     147.932 165.139 187.949  0.00  0.00    +0.305 C 
ATOM     70  O   UNL     1     148.633 164.252 187.486  0.00  0.00    -0.251 OA
BRANCH  69  71
ATOM     71  C   UNL     1     147.108 166.081 187.126  0.00  0.00    +0.033 C 
ATOM     72  H   UNL     1     147.698 166.973 186.895  0.00  0.00    +0.034 HD
ATOM     73  H   UNL     1     146.824 165.602 186.185  0.00  0.00    +0.034 HD
ATOM     74  H   UNL     1     146.220 166.384 187.687  0.00  0.00    +0.034 HD
ENDBRANCH  69  71
ENDBRANCH  68  69
ENDBRANCH  12  68
TORSDOF 10
ENDMDL
