MODEL 1
REMARK VINA RESULT:      -6.9      0.000      0.000
REMARK  Name = Jasplakinolide_conf1
REMARK  10 active torsions:
REMARK  status: ('A' for Active; 'I' for Inactive)
REMARK    1  A    between atoms: C_1  and  C_2
REMARK    2  A    between atoms: C_4  and  C_47
REMARK    3  A    between atoms: C_9  and  C_40
REMARK    4  A    between atoms: C_13  and  C_29
REMARK    5  A    between atoms: N_14  and  C_28
REMARK    6  A    between atoms: C_17  and  C_27
REMARK    7  A    between atoms: C_21  and  C_26
REMARK    8  A    between atoms: C_23  and  C_25
REMARK    9  A    between atoms: C_29  and  C_30
REMARK   10  A    between atoms: C_43  and  O_46
REMARK                            x       y       z     vdW  Elec       q    Type
REMARK                         _______ _______ _______ _____ _____    ______ ____
ROOT
ATOM      1  C   UNL     1     143.804 163.989 188.347  0.00  0.00    -0.022 C 
ATOM      2  C   UNL     1     143.191 163.656 189.729  0.00  0.00    -0.010 C 
ATOM      3  C   UNL     1     143.055 164.838 190.709  0.00  0.00    +0.101 C 
ATOM      4  O   UNL     1     144.384 165.299 191.024  0.00  0.00    -0.462 OA
ATOM      5  C   UNL     1     144.528 165.973 192.194  0.00  0.00    +0.309 C 
ATOM      6  O   UNL     1     143.636 166.173 193.008  0.00  0.00    -0.251 OA
ATOM      7  C   UNL     1     145.958 166.374 192.430  0.00  0.00    +0.067 C 
ATOM      8  C   UNL     1     146.570 167.133 191.247  0.00  0.00    +0.058 C 
ATOM      9  N   UNL     1     145.926 168.420 191.040  0.00  0.00    -0.306 N 
ATOM     10  C   UNL     1     145.665 168.924 189.779  0.00  0.00    +0.234 C 
ATOM     11  O   UNL     1     145.946 168.312 188.750  0.00  0.00    -0.274 OA
ATOM     12  C   UNL     1     145.004 170.325 189.776  0.00  0.00    +0.106 C 
ATOM     13  N   UNL     1     143.946 170.385 188.738  0.00  0.00    -0.291 N 
ATOM     14  C   UNL     1     142.639 170.106 189.118  0.00  0.00    +0.236 C 
ATOM     15  O   UNL     1     142.373 169.703 190.256  0.00  0.00    -0.274 OA
ATOM     16  C   UNL     1     141.506 170.271 188.079  0.00  0.00    +0.097 C 
ATOM     17  N   UNL     1     141.000 168.936 187.777  0.00  0.00    -0.304 N 
ATOM     18  C   UNL     1     141.150 168.349 186.544  0.00  0.00    +0.217 C 
ATOM     19  O   UNL     1     141.642 168.930 185.581  0.00  0.00    -0.275 OA
ATOM     20  C   UNL     1     140.604 166.930 186.462  0.00  0.00    +0.036 C 
ATOM     21  C   UNL     1     141.598 165.990 185.763  0.00  0.00    -0.021 C 
ATOM     22  C   UNL     1     142.783 165.623 186.644  0.00  0.00    -0.076 C 
ATOM     23  C   UNL     1     142.750 164.498 187.386  0.00  0.00    -0.082 C 
ATOM     24  H   UNL     1     144.603 164.723 188.491  0.00  0.00    +0.034 HD
ATOM     25  H   UNL     1     142.211 163.178 189.606  0.00  0.00    +0.031 HD
ATOM     26  H   UNL     1     143.837 162.914 190.219  0.00  0.00    +0.031 HD
ATOM     27  H   UNL     1     142.586 164.439 191.618  0.00  0.00    +0.073 HD
ATOM     28  H   UNL     1     146.522 165.460 192.651  0.00  0.00    +0.040 HD
ATOM     29  H   UNL     1     145.970 166.992 193.336  0.00  0.00    +0.040 HD
ATOM     30  H   UNL     1     146.426 166.529 190.342  0.00  0.00    +0.055 HD
ATOM     31  H   UNL     1     145.797 169.026 191.843  0.00  0.00    +0.149 HD
ATOM     32  H   UNL     1     144.508 170.438 190.749  0.00  0.00    +0.060 HD
ATOM     33  H   UNL     1     141.857 170.762 187.170  0.00  0.00    +0.059 HD
ATOM     34  H   UNL     1     140.679 168.382 188.564  0.00  0.00    +0.149 HD
ATOM     35  H   UNL     1     140.396 166.555 187.471  0.00  0.00    +0.039 HD
ATOM     36  H   UNL     1     141.075 165.068 185.477  0.00  0.00    +0.032 HD
ATOM     37  H   UNL     1     141.958 166.420 184.821  0.00  0.00    +0.032 HD
ATOM     38  H   UNL     1     141.861 163.869 187.316  0.00  0.00    +0.057 HD
ENDROOT
BRANCH   8  39
ATOM     39  C   UNL     1     148.068 167.353 191.426  0.00  0.00    -0.026 A 
ATOM     40  C   UNL     1     148.959 167.368 190.338  0.00  0.00    -0.053 A 
ATOM     41  C   UNL     1     150.329 167.545 190.542  0.00  0.00    -0.020 A 
ATOM     42  C   UNL     1     150.823 167.688 191.832  0.00  0.00    +0.117 A 
ATOM     43  C   UNL     1     149.967 167.669 192.927  0.00  0.00    -0.020 A 
ATOM     44  C   UNL     1     148.594 167.497 192.721  0.00  0.00    -0.053 A 
ATOM     45  H   UNL     1     148.604 167.223 189.321  0.00  0.00    +0.062 HD
ATOM     46  H   UNL     1     151.009 167.557 189.694  0.00  0.00    +0.065 HD
ATOM     47  H   UNL     1     150.341 167.766 193.941  0.00  0.00    +0.065 HD
ATOM     48  H   UNL     1     147.932 167.452 193.585  0.00  0.00    +0.062 HD
BRANCH  42  49
ATOM     49  O   UNL     1     152.171 167.826 191.985  0.00  0.00    -0.507 OA
ATOM     50  H   UNL     1     152.584 166.956 191.853  0.00  0.00    +0.292 HD
ENDBRANCH  42  49
ENDBRANCH   8  39
BRANCH   1  51
ATOM     51  C   UNL     1     144.437 162.732 187.739  0.00  0.00    -0.059 C 
ATOM     52  H   UNL     1     143.734 162.231 187.064  0.00  0.00    +0.024 HD
ATOM     53  H   UNL     1     144.714 162.013 188.519  0.00  0.00    +0.024 HD
ATOM     54  H   UNL     1     145.341 162.972 187.165  0.00  0.00    +0.024 HD
ENDBRANCH   1  51
BRANCH  22  55
ATOM     55  C   UNL     1     143.956 166.567 186.586  0.00  0.00    -0.044 C 
ATOM     56  H   UNL     1     143.938 167.256 187.439  0.00  0.00    +0.027 HD
ATOM     57  H   UNL     1     144.895 166.008 186.612  0.00  0.00    +0.027 HD
ATOM     58  H   UNL     1     143.956 167.192 185.689  0.00  0.00    +0.027 HD
ENDBRANCH  22  55
BRANCH  20  59
ATOM     59  C   UNL     1     139.279 166.984 185.700  0.00  0.00    -0.054 C 
ATOM     60  H   UNL     1     139.432 167.276 184.654  0.00  0.00    +0.024 HD
ATOM     61  H   UNL     1     138.783 166.008 185.712  0.00  0.00    +0.024 HD
ATOM     62  H   UNL     1     138.600 167.714 186.152  0.00  0.00    +0.024 HD
ENDBRANCH  20  59
BRANCH  16  63
ATOM     63  C   UNL     1     140.388 171.127 188.667  0.00  0.00    -0.038 C 
ATOM     64  H   UNL     1     139.456 170.557 188.733  0.00  0.00    +0.025 HD
ATOM     65  H   UNL     1     140.632 171.476 189.678  0.00  0.00    +0.025 HD
ATOM     66  H   UNL     1     140.208 172.010 188.046  0.00  0.00    +0.025 HD
ENDBRANCH  16  63
BRANCH  13  67
ATOM     67  C   UNL     1     144.348 170.564 187.346  0.00  0.00    +0.004 C 
ATOM     68  H   UNL     1     143.495 170.455 186.674  0.00  0.00    +0.043 HD
ATOM     69  H   UNL     1     145.093 169.821 187.050  0.00  0.00    +0.043 HD
ATOM     70  H   UNL     1     144.774 171.569 187.241  0.00  0.00    +0.043 HD
ENDBRANCH  13  67
BRANCH   3  71
ATOM     71  C   UNL     1     142.216 165.999 190.185  0.00  0.00    -0.028 C 
ATOM     72  H   UNL     1     142.245 166.029 189.091  0.00  0.00    +0.027 HD
ATOM     73  H   UNL     1     141.162 165.882 190.449  0.00  0.00    +0.027 HD
ATOM     74  H   UNL     1     142.588 166.958 190.552  0.00  0.00    +0.027 HD
ENDBRANCH   3  71
BRANCH  12  75
ATOM     75  C   UNL     1     146.039 171.460 189.656  0.00  0.00    +0.003 C 
ATOM     76  H   UNL     1     146.923 171.116 189.110  0.00  0.00    +0.034 HD
ATOM     77  H   UNL     1     145.613 172.264 189.040  0.00  0.00    +0.034 HD
BRANCH  75  78
ATOM     78  C   UNL     1     146.466 172.048 190.969  0.00  0.00    -0.006 A 
ATOM     79  C   UNL     1     145.735 172.883 191.789  0.00  0.00    +0.087 A 
ATOM     80  N   UNL     1     146.497 173.234 192.863  0.00  0.00    -0.349 N 
ATOM     81  C   UNL     1     147.729 172.628 192.785  0.00  0.00    +0.048 A 
ATOM     82  C   UNL     1     148.825 172.706 193.651  0.00  0.00    -0.038 A 
ATOM     83  C   UNL     1     149.967 171.975 193.315  0.00  0.00    -0.060 A 
ATOM     84  C   UNL     1     150.006 171.194 192.163  0.00  0.00    -0.061 A 
ATOM     85  C   UNL     1     148.900 171.128 191.308  0.00  0.00    -0.052 A 
ATOM     86  C   UNL     1     147.734 171.862 191.618  0.00  0.00    +0.004 A 
ATOM     87 BR   UNL     1     143.959 173.511 191.520  0.00  0.00    -0.031 Br
ATOM     88  H   UNL     1     146.204 173.873 193.589  0.00  0.00    +0.166 HD
ATOM     89  H   UNL     1     148.794 173.307 194.555  0.00  0.00    +0.064 HD
ATOM     90  H   UNL     1     150.836 172.012 193.968  0.00  0.00    +0.062 HD
ATOM     91  H   UNL     1     150.902 170.627 191.926  0.00  0.00    +0.062 HD
ATOM     92  H   UNL     1     148.949 170.508 190.418  0.00  0.00    +0.062 HD
ENDBRANCH  75  78
ENDBRANCH  12  75
TORSDOF 10
ENDMDL
MODEL 2
REMARK VINA RESULT:      -6.9      2.782      3.542
REMARK  Name = Jasplakinolide_conf1
REMARK  10 active torsions:
REMARK  status: ('A' for Active; 'I' for Inactive)
REMARK    1  A    between atoms: C_1  and  C_2
REMARK    2  A    between atoms: C_4  and  C_47
REMARK    3  A    between atoms: C_9  and  C_40
REMARK    4  A    between atoms: C_13  and  C_29
REMARK    5  A    between atoms: N_14  and  C_28
REMARK    6  A    between atoms: C_17  and  C_27
REMARK    7  A    between atoms: C_21  and  C_26
REMARK    8  A    between atoms: C_23  and  C_25
REMARK    9  A    between atoms: C_29  and  C_30
REMARK   10  A    between atoms: C_43  and  O_46
REMARK                            x       y       z     vdW  Elec       q    Type
REMARK                         _______ _______ _______ _____ _____    ______ ____
ROOT
ATOM      1  C   UNL     1     143.825 163.313 189.345  0.00  0.00    -0.022 C 
ATOM      2  C   UNL     1     142.594 163.914 190.066  0.00  0.00    -0.010 C 
ATOM      3  C   UNL     1     142.725 165.384 190.512  0.00  0.00    +0.101 C 
ATOM      4  O   UNL     1     143.771 165.448 191.503  0.00  0.00    -0.462 OA
ATOM      5  C   UNL     1     143.727 166.500 192.360  0.00  0.00    +0.309 C 
ATOM      6  O   UNL     1     142.854 167.358 192.381  0.00  0.00    -0.251 OA
ATOM      7  C   UNL     1     144.844 166.443 193.364  0.00  0.00    +0.067 C 
ATOM      8  C   UNL     1     146.224 166.281 192.717  0.00  0.00    +0.058 C 
ATOM      9  N   UNL     1     146.590 167.446 191.926  0.00  0.00    -0.306 N 
ATOM     10  C   UNL     1     147.252 167.342 190.718  0.00  0.00    +0.234 C 
ATOM     11  O   UNL     1     147.565 166.260 190.223  0.00  0.00    -0.274 OA
ATOM     12  C   UNL     1     147.578 168.702 190.050  0.00  0.00    +0.106 C 
ATOM     13  N   UNL     1     147.338 168.621 188.589  0.00  0.00    -0.291 N 
ATOM     14  C   UNL     1     146.100 169.028 188.106  0.00  0.00    +0.236 C 
ATOM     15  O   UNL     1     145.180 169.337 188.873  0.00  0.00    -0.274 OA
ATOM     16  C   UNL     1     145.865 169.058 186.578  0.00  0.00    +0.097 C 
ATOM     17  N   UNL     1     144.899 168.009 186.270  0.00  0.00    -0.304 N 
ATOM     18  C   UNL     1     145.224 166.895 185.534  0.00  0.00    +0.217 C 
ATOM     19  O   UNL     1     146.322 166.736 185.011  0.00  0.00    -0.275 OA
ATOM     20  C   UNL     1     144.084 165.898 185.382  0.00  0.00    +0.036 C 
ATOM     21  C   UNL     1     144.561 164.461 185.645  0.00  0.00    -0.021 C 
ATOM     22  C   UNL     1     144.789 164.175 187.122  0.00  0.00    -0.076 C 
ATOM     23  C   UNL     1     143.804 163.631 187.863  0.00  0.00    -0.082 C 
ATOM     24  H   UNL     1     144.730 163.699 189.824  0.00  0.00    +0.034 HD
ATOM     25  H   UNL     1     141.697 163.808 189.442  0.00  0.00    +0.031 HD
ATOM     26  H   UNL     1     142.410 163.325 190.975  0.00  0.00    +0.031 HD
ATOM     27  H   UNL     1     141.768 165.657 190.978  0.00  0.00    +0.073 HD
ATOM     28  H   UNL     1     144.627 165.615 194.049  0.00  0.00    +0.040 HD
ATOM     29  H   UNL     1     144.795 167.370 193.949  0.00  0.00    +0.040 HD
ATOM     30  H   UNL     1     146.189 165.411 192.049  0.00  0.00    +0.055 HD
ATOM     31  H   UNL     1     146.481 168.363 192.346  0.00  0.00    +0.149 HD
ATOM     32  H   UNL     1     146.863 169.427 190.456  0.00  0.00    +0.060 HD
ATOM     33  H   UNL     1     146.791 168.900 186.021  0.00  0.00    +0.059 HD
ATOM     34  H   UNL     1     144.013 168.047 186.763  0.00  0.00    +0.149 HD
ATOM     35  H   UNL     1     143.278 166.147 186.084  0.00  0.00    +0.039 HD
ATOM     36  H   UNL     1     143.806 163.760 185.264  0.00  0.00    +0.032 HD
ATOM     37  H   UNL     1     145.474 164.235 185.080  0.00  0.00    +0.032 HD
ATOM     38  H   UNL     1     142.862 163.396 187.365  0.00  0.00    +0.057 HD
ENDROOT
BRANCH   8  39
ATOM     39  C   UNL     1     147.313 166.027 193.754  0.00  0.00    -0.026 A 
ATOM     40  C   UNL     1     148.630 165.695 193.392  0.00  0.00    -0.053 A 
ATOM     41  C   UNL     1     149.596 165.441 194.369  0.00  0.00    -0.020 A 
ATOM     42  C   UNL     1     149.250 165.498 195.712  0.00  0.00    +0.117 A 
ATOM     43  C   UNL     1     147.953 165.816 196.100  0.00  0.00    -0.020 A 
ATOM     44  C   UNL     1     146.989 166.075 195.121  0.00  0.00    -0.053 A 
ATOM     45  H   UNL     1     148.920 165.609 192.347  0.00  0.00    +0.062 HD
ATOM     46  H   UNL     1     150.611 165.187 194.078  0.00  0.00    +0.065 HD
ATOM     47  H   UNL     1     147.666 165.850 197.146  0.00  0.00    +0.065 HD
ATOM     48  H   UNL     1     145.967 166.293 195.430  0.00  0.00    +0.062 HD
BRANCH  42  49
ATOM     49  O   UNL     1     150.217 165.212 196.630  0.00  0.00    -0.507 OA
ATOM     50  H   UNL     1     150.628 164.365 196.387  0.00  0.00    +0.292 HD
ENDBRANCH  42  49
ENDBRANCH   8  39
BRANCH   1  51
ATOM     51  C   UNL     1     143.832 161.789 189.505  0.00  0.00    -0.059 C 
ATOM     52  H   UNL     1     144.449 161.319 188.731  0.00  0.00    +0.024 HD
ATOM     53  H   UNL     1     142.820 161.377 189.414  0.00  0.00    +0.024 HD
ATOM     54  H   UNL     1     144.232 161.488 190.482  0.00  0.00    +0.024 HD
ENDBRANCH   1  51
BRANCH  22  55
ATOM     55  C   UNL     1     146.163 164.506 187.646  0.00  0.00    -0.044 C 
ATOM     56  H   UNL     1     146.128 164.690 188.726  0.00  0.00    +0.027 HD
ATOM     57  H   UNL     1     146.849 163.676 187.459  0.00  0.00    +0.027 HD
ATOM     58  H   UNL     1     146.585 165.407 187.195  0.00  0.00    +0.027 HD
ENDBRANCH  22  55
BRANCH  20  59
ATOM     59  C   UNL     1     143.529 166.035 183.964  0.00  0.00    -0.054 C 
ATOM     60  H   UNL     1     143.075 167.021 183.807  0.00  0.00    +0.024 HD
ATOM     61  H   UNL     1     144.322 165.902 183.221  0.00  0.00    +0.024 HD
ATOM     62  H   UNL     1     142.758 165.281 183.773  0.00  0.00    +0.024 HD
ENDBRANCH  20  59
BRANCH  16  63
ATOM     63  C   UNL     1     145.304 170.416 186.169  0.00  0.00    -0.038 C 
ATOM     64  H   UNL     1     144.209 170.398 186.162  0.00  0.00    +0.025 HD
ATOM     65  H   UNL     1     145.615 171.209 186.860  0.00  0.00    +0.025 HD
ATOM     66  H   UNL     1     145.649 170.693 185.168  0.00  0.00    +0.025 HD
ENDBRANCH  16  63
BRANCH  13  67
ATOM     67  C   UNL     1     148.339 167.963 187.754  0.00  0.00    +0.004 C 
ATOM     68  H   UNL     1     148.940 167.266 188.340  0.00  0.00    +0.043 HD
ATOM     69  H   UNL     1     149.024 168.692 187.311  0.00  0.00    +0.043 HD
ATOM     70  H   UNL     1     147.817 167.422 186.957  0.00  0.00    +0.043 HD
ENDBRANCH  13  67
BRANCH   3  71
ATOM     71  C   UNL     1     143.025 166.362 189.382  0.00  0.00    -0.028 C 
ATOM     72  H   UNL     1     142.100 166.820 189.016  0.00  0.00    +0.027 HD
ATOM     73  H   UNL     1     143.649 167.191 189.724  0.00  0.00    +0.027 HD
ATOM     74  H   UNL     1     143.502 165.862 188.536  0.00  0.00    +0.027 HD
ENDBRANCH   3  71
BRANCH  12  75
ATOM     75  C   UNL     1     148.991 169.204 190.407  0.00  0.00    +0.003 C 
ATOM     76  H   UNL     1     149.599 168.387 190.805  0.00  0.00    +0.034 HD
ATOM     77  H   UNL     1     149.498 169.520 189.484  0.00  0.00    +0.034 HD
BRANCH  75  78
ATOM     78  C   UNL     1     149.012 170.352 191.373  0.00  0.00    -0.006 A 
ATOM     79  C   UNL     1     150.023 170.691 192.249  0.00  0.00    +0.087 A 
ATOM     80  N   UNL     1     149.634 171.767 192.987  0.00  0.00    -0.349 N 
ATOM     81  C   UNL     1     148.376 172.171 192.604  0.00  0.00    +0.048 A 
ATOM     82  C   UNL     1     147.582 173.217 193.088  0.00  0.00    -0.038 A 
ATOM     83  C   UNL     1     146.324 173.396 192.505  0.00  0.00    -0.060 A 
ATOM     84  C   UNL     1     145.886 172.566 191.478  0.00  0.00    -0.061 A 
ATOM     85  C   UNL     1     146.694 171.525 191.006  0.00  0.00    -0.052 A 
ATOM     86  C   UNL     1     147.966 171.315 191.580  0.00  0.00    +0.004 A 
ATOM     87 BR   UNL     1     151.705 169.827 192.470  0.00  0.00    -0.031 Br
ATOM     88  H   UNL     1     150.181 172.182 193.728  0.00  0.00    +0.166 HD
ATOM     89  H   UNL     1     147.925 173.870 193.884  0.00  0.00    +0.064 HD
ATOM     90  H   UNL     1     145.683 174.201 192.857  0.00  0.00    +0.062 HD
ATOM     91  H   UNL     1     144.907 172.729 191.033  0.00  0.00    +0.062 HD
ATOM     92  H   UNL     1     146.335 170.894 190.199  0.00  0.00    +0.062 HD
ENDBRANCH  75  78
ENDBRANCH  12  75
TORSDOF 10
ENDMDL
MODEL 3
REMARK VINA RESULT:      -6.8      3.871      6.190
REMARK  Name = Jasplakinolide_conf1
REMARK  10 active torsions:
REMARK  status: ('A' for Active; 'I' for Inactive)
REMARK    1  A    between atoms: C_1  and  C_2
REMARK    2  A    between atoms: C_4  and  C_47
REMARK    3  A    between atoms: C_9  and  C_40
REMARK    4  A    between atoms: C_13  and  C_29
REMARK    5  A    between atoms: N_14  and  C_28
REMARK    6  A    between atoms: C_17  and  C_27
REMARK    7  A    between atoms: C_21  and  C_26
REMARK    8  A    between atoms: C_23  and  C_25
REMARK    9  A    between atoms: C_29  and  C_30
REMARK   10  A    between atoms: C_43  and  O_46
REMARK                            x       y       z     vdW  Elec       q    Type
REMARK                         _______ _______ _______ _____ _____    ______ ____
ROOT
ATOM      1  C   UNL     1     146.068 166.280 184.939  0.00  0.00    -0.022 C 
ATOM      2  C   UNL     1     146.025 164.733 184.923  0.00  0.00    -0.010 C 
ATOM      3  C   UNL     1     146.551 164.030 186.190  0.00  0.00    +0.101 C 
ATOM      4  O   UNL     1     147.956 164.334 186.307  0.00  0.00    -0.462 OA
ATOM      5  C   UNL     1     148.704 163.463 187.030  0.00  0.00    +0.309 C 
ATOM      6  O   UNL     1     148.289 162.432 187.543  0.00  0.00    -0.251 OA
ATOM      7  C   UNL     1     150.153 163.865 187.054  0.00  0.00    +0.067 C 
ATOM      8  C   UNL     1     150.365 165.317 187.499  0.00  0.00    +0.058 C 
ATOM      9  N   UNL     1     149.972 165.520 188.885  0.00  0.00    -0.306 N 
ATOM     10  C   UNL     1     149.324 166.664 189.311  0.00  0.00    +0.234 C 
ATOM     11  O   UNL     1     149.024 167.580 188.547  0.00  0.00    -0.274 OA
ATOM     12  C   UNL     1     149.024 166.698 190.830  0.00  0.00    +0.106 C 
ATOM     13  N   UNL     1     147.670 167.255 191.068  0.00  0.00    -0.291 N 
ATOM     14  C   UNL     1     146.609 166.366 191.190  0.00  0.00    +0.236 C 
ATOM     15  O   UNL     1     146.760 165.154 190.989  0.00  0.00    -0.274 OA
ATOM     16  C   UNL     1     145.209 166.914 191.548  0.00  0.00    +0.097 C 
ATOM     17  N   UNL     1     144.362 166.733 190.374  0.00  0.00    -0.304 N 
ATOM     18  C   UNL     1     143.865 167.788 189.649  0.00  0.00    +0.217 C 
ATOM     19  O   UNL     1     144.025 168.960 189.977  0.00  0.00    -0.275 OA
ATOM     20  C   UNL     1     143.055 167.376 188.427  0.00  0.00    +0.036 C 
ATOM     21  C   UNL     1     143.456 168.193 187.190  0.00  0.00    -0.021 C 
ATOM     22  C   UNL     1     144.796 167.766 186.609  0.00  0.00    -0.076 C 
ATOM     23  C   UNL     1     144.840 166.858 185.614  0.00  0.00    -0.082 C 
ATOM     24  H   UNL     1     146.987 166.596 185.443  0.00  0.00    +0.034 HD
ATOM     25  H   UNL     1     145.006 164.382 184.716  0.00  0.00    +0.031 HD
ATOM     26  H   UNL     1     146.648 164.383 184.087  0.00  0.00    +0.031 HD
ATOM     27  H   UNL     1     146.428 162.951 186.024  0.00  0.00    +0.073 HD
ATOM     28  H   UNL     1     150.557 163.694 186.050  0.00  0.00    +0.040 HD
ATOM     29  H   UNL     1     150.664 163.172 187.734  0.00  0.00    +0.040 HD
ATOM     30  H   UNL     1     149.740 165.962 186.868  0.00  0.00    +0.055 HD
ATOM     31  H   UNL     1     150.314 164.865 189.580  0.00  0.00    +0.149 HD
ATOM     32  H   UNL     1     149.009 165.655 191.169  0.00  0.00    +0.060 HD
ATOM     33  H   UNL     1     145.246 167.968 191.834  0.00  0.00    +0.059 HD
ATOM     34  H   UNL     1     144.287 165.790 190.008  0.00  0.00    +0.149 HD
ATOM     35  H   UNL     1     143.210 166.309 188.224  0.00  0.00    +0.039 HD
ATOM     36  H   UNL     1     142.684 168.072 186.418  0.00  0.00    +0.032 HD
ATOM     37  H   UNL     1     143.476 169.267 187.411  0.00  0.00    +0.032 HD
ATOM     38  H   UNL     1     143.894 166.462 185.243  0.00  0.00    +0.057 HD
ENDROOT
BRANCH   8  39
ATOM     39  C   UNL     1     151.813 165.760 187.326  0.00  0.00    -0.026 A 
ATOM     40  C   UNL     1     152.453 166.607 188.248  0.00  0.00    -0.053 A 
ATOM     41  C   UNL     1     153.773 167.016 188.043  0.00  0.00    -0.020 A 
ATOM     42  C   UNL     1     154.457 166.598 186.909  0.00  0.00    +0.117 A 
ATOM     43  C   UNL     1     153.847 165.767 185.977  0.00  0.00    -0.020 A 
ATOM     44  C   UNL     1     152.527 165.355 186.185  0.00  0.00    -0.053 A 
ATOM     45  H   UNL     1     151.930 166.978 189.126  0.00  0.00    +0.062 HD
ATOM     46  H   UNL     1     154.259 167.669 188.763  0.00  0.00    +0.065 HD
ATOM     47  H   UNL     1     154.365 165.446 185.079  0.00  0.00    +0.065 HD
ATOM     48  H   UNL     1     152.044 164.728 185.436  0.00  0.00    +0.062 HD
BRANCH  42  49
ATOM     49  O   UNL     1     155.732 167.048 186.734  0.00  0.00    -0.507 OA
ATOM     50  H   UNL     1     155.728 167.710 186.022  0.00  0.00    +0.292 HD
ENDBRANCH  42  49
ENDBRANCH   8  39
BRANCH   1  51
ATOM     51  C   UNL     1     146.120 166.817 183.504  0.00  0.00    -0.059 C 
ATOM     52  H   UNL     1     147.065 166.543 183.021  0.00  0.00    +0.024 HD
ATOM     53  H   UNL     1     146.049 167.911 183.489  0.00  0.00    +0.024 HD
ATOM     54  H   UNL     1     145.301 166.417 182.893  0.00  0.00    +0.024 HD
ENDBRANCH   1  51
BRANCH  22  55
ATOM     55  C   UNL     1     146.007 168.446 187.193  0.00  0.00    -0.044 C 
ATOM     56  H   UNL     1     146.852 168.391 186.497  0.00  0.00    +0.027 HD
ATOM     57  H   UNL     1     145.791 169.499 187.392  0.00  0.00    +0.027 HD
ATOM     58  H   UNL     1     146.347 167.985 188.123  0.00  0.00    +0.027 HD
ENDBRANCH  22  55
BRANCH  20  59
ATOM     59  C   UNL     1     141.576 167.580 188.758  0.00  0.00    -0.054 C 
ATOM     60  H   UNL     1     141.172 168.464 188.250  0.00  0.00    +0.024 HD
ATOM     61  H   UNL     1     140.985 166.711 188.452  0.00  0.00    +0.024 HD
ATOM     62  H   UNL     1     141.434 167.724 189.835  0.00  0.00    +0.024 HD
ENDBRANCH  20  59
BRANCH  16  63
ATOM     63  C   UNL     1     144.636 166.134 192.727  0.00  0.00    -0.038 C 
ATOM     64  H   UNL     1     145.275 166.239 193.610  0.00  0.00    +0.025 HD
ATOM     65  H   UNL     1     143.635 166.490 193.002  0.00  0.00    +0.025 HD
ATOM     66  H   UNL     1     144.555 165.070 192.486  0.00  0.00    +0.025 HD
ENDBRANCH  16  63
BRANCH  13  67
ATOM     67  C   UNL     1     147.489 168.702 190.993  0.00  0.00    +0.004 C 
ATOM     68  H   UNL     1     147.797 169.085 190.019  0.00  0.00    +0.043 HD
ATOM     69  H   UNL     1     148.089 169.215 191.750  0.00  0.00    +0.043 HD
ATOM     70  H   UNL     1     146.428 168.922 191.158  0.00  0.00    +0.043 HD
ENDBRANCH  13  67
BRANCH   3  71
ATOM     71  C   UNL     1     145.829 164.422 187.474  0.00  0.00    -0.028 C 
ATOM     72  H   UNL     1     146.485 165.020 188.115  0.00  0.00    +0.027 HD
ATOM     73  H   UNL     1     144.961 165.052 187.270  0.00  0.00    +0.027 HD
ATOM     74  H   UNL     1     145.524 163.542 188.045  0.00  0.00    +0.027 HD
ENDBRANCH   3  71
BRANCH  12  75
ATOM     75  C   UNL     1     150.127 167.421 191.628  0.00  0.00    +0.003 C 
ATOM     76  H   UNL     1     150.988 167.632 190.987  0.00  0.00    +0.034 HD
ATOM     77  H   UNL     1     149.751 168.406 191.940  0.00  0.00    +0.034 HD
BRANCH  75  78
ATOM     78  C   UNL     1     150.589 166.684 192.851  0.00  0.00    -0.006 A 
ATOM     79  C   UNL     1     151.828 166.119 193.070  0.00  0.00    +0.087 A 
ATOM     80  N   UNL     1     151.830 165.500 194.283  0.00  0.00    -0.349 N 
ATOM     81  C   UNL     1     150.608 165.657 194.893  0.00  0.00    +0.048 A 
ATOM     82  C   UNL     1     150.155 165.187 196.132  0.00  0.00    -0.038 A 
ATOM     83  C   UNL     1     148.844 165.501 196.501  0.00  0.00    -0.060 A 
ATOM     84  C   UNL     1     148.026 166.258 195.668  0.00  0.00    -0.061 A 
ATOM     85  C   UNL     1     148.496 166.720 194.433  0.00  0.00    -0.052 A 
ATOM     86  C   UNL     1     149.813 166.412 194.029  0.00  0.00    +0.004 A 
ATOM     87 BR   UNL     1     153.334 166.135 191.904  0.00  0.00    -0.031 Br
ATOM     88  H   UNL     1     152.608 164.974 194.657  0.00  0.00    +0.166 HD
ATOM     89  H   UNL     1     150.795 164.604 196.787  0.00  0.00    +0.064 HD
ATOM     90  H   UNL     1     148.462 165.153 197.458  0.00  0.00    +0.062 HD
ATOM     91  H   UNL     1     147.012 166.496 195.979  0.00  0.00    +0.062 HD
ATOM     92  H   UNL     1     147.843 167.314 193.801  0.00  0.00    +0.062 HD
ENDBRANCH  75  78
ENDBRANCH  12  75
TORSDOF 10
ENDMDL
MODEL 4
REMARK VINA RESULT:      -6.8      2.697      3.600
REMARK  Name = Jasplakinolide_conf1
REMARK  10 active torsions:
REMARK  status: ('A' for Active; 'I' for Inactive)
REMARK    1  A    between atoms: C_1  and  C_2
REMARK    2  A    between atoms: C_4  and  C_47
REMARK    3  A    between atoms: C_9  and  C_40
REMARK    4  A    between atoms: C_13  and  C_29
REMARK    5  A    between atoms: N_14  and  C_28
REMARK    6  A    between atoms: C_17  and  C_27
REMARK    7  A    between atoms: C_21  and  C_26
REMARK    8  A    between atoms: C_23  and  C_25
REMARK    9  A    between atoms: C_29  and  C_30
REMARK   10  A    between atoms: C_43  and  O_46
REMARK                            x       y       z     vdW  Elec       q    Type
REMARK                         _______ _______ _______ _____ _____    ______ ____
ROOT
ATOM      1  C   UNL     1     144.168 162.164 188.698  0.00  0.00    -0.022 C 
ATOM      2  C   UNL     1     142.730 162.575 189.097  0.00  0.00    -0.010 C 
ATOM      3  C   UNL     1     142.491 164.085 189.295  0.00  0.00    +0.101 C 
ATOM      4  O   UNL     1     143.294 164.512 190.413  0.00  0.00    -0.462 OA
ATOM      5  C   UNL     1     142.887 165.637 191.055  0.00  0.00    +0.309 C 
ATOM      6  O   UNL     1     141.879 166.277 190.786  0.00  0.00    -0.251 OA
ATOM      7  C   UNL     1     143.781 165.964 192.220  0.00  0.00    +0.067 C 
ATOM      8  C   UNL     1     145.264 166.021 191.839  0.00  0.00    +0.058 C 
ATOM      9  N   UNL     1     145.546 167.117 190.925  0.00  0.00    -0.306 N 
ATOM     10  C   UNL     1     146.436 166.995 189.875  0.00  0.00    +0.234 C 
ATOM     11  O   UNL     1     147.038 165.950 189.633  0.00  0.00    -0.274 OA
ATOM     12  C   UNL     1     146.619 168.287 189.041  0.00  0.00    +0.106 C 
ATOM     13  N   UNL     1     146.684 167.955 187.596  0.00  0.00    -0.291 N 
ATOM     14  C   UNL     1     145.508 168.012 186.859  0.00  0.00    +0.236 C 
ATOM     15  O   UNL     1     144.416 168.214 187.404  0.00  0.00    -0.274 OA
ATOM     16  C   UNL     1     145.570 167.779 185.332  0.00  0.00    +0.097 C 
ATOM     17  N   UNL     1     144.898 166.512 185.062  0.00  0.00    -0.304 N 
ATOM     18  C   UNL     1     145.565 165.406 184.593  0.00  0.00    +0.217 C 
ATOM     19  O   UNL     1     146.753 165.420 184.287  0.00  0.00    -0.275 OA
ATOM     20  C   UNL     1     144.687 164.171 184.438  0.00  0.00    +0.036 C 
ATOM     21  C   UNL     1     145.370 162.924 185.020  0.00  0.00    -0.021 C 
ATOM     22  C   UNL     1     145.360 162.901 186.541  0.00  0.00    -0.076 C 
ATOM     23  C   UNL     1     144.372 162.262 187.200  0.00  0.00    -0.082 C 
ATOM     24  H   UNL     1     144.874 162.801 189.240  0.00  0.00    +0.034 HD
ATOM     25  H   UNL     1     142.007 162.190 188.367  0.00  0.00    +0.031 HD
ATOM     26  H   UNL     1     142.490 162.090 190.054  0.00  0.00    +0.031 HD
ATOM     27  H   UNL     1     141.428 164.203 189.547  0.00  0.00    +0.073 HD
ATOM     28  H   UNL     1     143.597 165.211 192.995  0.00  0.00    +0.040 HD
ATOM     29  H   UNL     1     143.444 166.930 192.617  0.00  0.00    +0.040 HD
ATOM     30  H   UNL     1     145.525 165.080 191.336  0.00  0.00    +0.055 HD
ATOM     31  H   UNL     1     145.187 168.036 191.156  0.00  0.00    +0.149 HD
ATOM     32  H   UNL     1     145.714 168.888 189.194  0.00  0.00    +0.060 HD
ATOM     33  H   UNL     1     146.598 167.752 184.966  0.00  0.00    +0.059 HD
ATOM     34  H   UNL     1     143.944 166.422 185.393  0.00  0.00    +0.149 HD
ATOM     35  H   UNL     1     143.728 164.333 184.947  0.00  0.00    +0.039 HD
ATOM     36  H   UNL     1     144.849 162.030 184.652  0.00  0.00    +0.032 HD
ATOM     37  H   UNL     1     146.400 162.828 184.656  0.00  0.00    +0.032 HD
ATOM     38  H   UNL     1     143.606 161.761 186.606  0.00  0.00    +0.057 HD
ENDROOT
BRANCH   8  39
ATOM     39  C   UNL     1     146.162 166.156 193.064  0.00  0.00    -0.026 A 
ATOM     40  C   UNL     1     147.322 166.951 193.059  0.00  0.00    -0.053 A 
ATOM     41  C   UNL     1     148.136 167.030 194.192  0.00  0.00    -0.020 A 
ATOM     42  C   UNL     1     147.810 166.302 195.328  0.00  0.00    +0.117 A 
ATOM     43  C   UNL     1     146.674 165.501 195.359  0.00  0.00    -0.020 A 
ATOM     44  C   UNL     1     145.857 165.427 194.226  0.00  0.00    -0.053 A 
ATOM     45  H   UNL     1     147.619 167.503 192.171  0.00  0.00    +0.062 HD
ATOM     46  H   UNL     1     149.029 167.648 194.178  0.00  0.00    +0.065 HD
ATOM     47  H   UNL     1     146.416 164.916 196.236  0.00  0.00    +0.065 HD
ATOM     48  H   UNL     1     144.985 164.774 194.246  0.00  0.00    +0.062 HD
BRANCH  42  49
ATOM     49  O   UNL     1     148.651 166.384 196.399  0.00  0.00    -0.507 OA
ATOM     50  H   UNL     1     149.280 165.644 196.351  0.00  0.00    +0.292 HD
ENDBRANCH  42  49
ENDBRANCH   8  39
BRANCH   1  51
ATOM     51  C   UNL     1     144.435 160.715 189.121  0.00  0.00    -0.059 C 
ATOM     52  H   UNL     1     145.304 160.658 189.787  0.00  0.00    +0.024 HD
ATOM     53  H   UNL     1     144.645 160.082 188.251  0.00  0.00    +0.024 HD
ATOM     54  H   UNL     1     143.576 160.285 189.652  0.00  0.00    +0.024 HD
ENDBRANCH   1  51
BRANCH  22  55
ATOM     55  C   UNL     1     146.518 163.593 187.212  0.00  0.00    -0.044 C 
ATOM     56  H   UNL     1     147.395 163.598 186.555  0.00  0.00    +0.027 HD
ATOM     57  H   UNL     1     146.257 164.628 187.447  0.00  0.00    +0.027 HD
ATOM     58  H   UNL     1     146.831 163.101 188.136  0.00  0.00    +0.027 HD
ENDBRANCH  22  55
BRANCH  20  59
ATOM     59  C   UNL     1     144.399 163.988 182.947  0.00  0.00    -0.054 C 
ATOM     60  H   UNL     1     144.933 163.119 182.542  0.00  0.00    +0.024 HD
ATOM     61  H   UNL     1     143.329 163.843 182.772  0.00  0.00    +0.024 HD
ATOM     62  H   UNL     1     144.720 164.867 182.378  0.00  0.00    +0.024 HD
ENDBRANCH  20  59
BRANCH  16  63
ATOM     63  C   UNL     1     144.849 168.912 184.608  0.00  0.00    -0.038 C 
ATOM     64  H   UNL     1     145.551 169.494 184.003  0.00  0.00    +0.025 HD
ATOM     65  H   UNL     1     144.071 168.534 183.934  0.00  0.00    +0.025 HD
ATOM     66  H   UNL     1     144.370 169.587 185.324  0.00  0.00    +0.025 HD
ENDBRANCH  16  63
BRANCH  13  67
ATOM     67  C   UNL     1     147.934 167.424 187.060  0.00  0.00    +0.004 C 
ATOM     68  H   UNL     1     148.526 166.950 187.844  0.00  0.00    +0.043 HD
ATOM     69  H   UNL     1     148.546 168.219 186.624  0.00  0.00    +0.043 HD
ATOM     70  H   UNL     1     147.687 166.688 186.287  0.00  0.00    +0.043 HD
ENDBRANCH  13  67
BRANCH   3  71
ATOM     71  C   UNL     1     142.810 164.940 188.074  0.00  0.00    -0.028 C 
ATOM     72  H   UNL     1     142.591 165.993 188.275  0.00  0.00    +0.027 HD
ATOM     73  H   UNL     1     143.873 164.902 187.825  0.00  0.00    +0.027 HD
ATOM     74  H   UNL     1     142.215 164.639 187.209  0.00  0.00    +0.027 HD
ENDBRANCH   3  71
BRANCH  12  75
ATOM     75  C   UNL     1     147.815 169.131 189.525  0.00  0.00    +0.003 C 
ATOM     76  H   UNL     1     148.555 168.497 190.021  0.00  0.00    +0.034 HD
ATOM     77  H   UNL     1     148.332 169.548 188.649  0.00  0.00    +0.034 HD
BRANCH  75  78
ATOM     78  C   UNL     1     147.443 170.264 190.436  0.00  0.00    -0.006 A 
ATOM     79  C   UNL     1     146.263 170.981 190.442  0.00  0.00    +0.087 A 
ATOM     80  N   UNL     1     146.338 171.957 191.388  0.00  0.00    -0.349 N 
ATOM     81  C   UNL     1     147.550 171.895 192.034  0.00  0.00    +0.048 A 
ATOM     82  C   UNL     1     148.063 172.696 193.061  0.00  0.00    -0.038 A 
ATOM     83  C   UNL     1     149.346 172.400 193.531  0.00  0.00    -0.060 A 
ATOM     84  C   UNL     1     150.078 171.342 193.000  0.00  0.00    -0.061 A 
ATOM     85  C   UNL     1     149.548 170.551 191.975  0.00  0.00    -0.052 A 
ATOM     86  C   UNL     1     148.258 170.830 191.473  0.00  0.00    +0.004 A 
ATOM     87 BR   UNL     1     144.745 170.727 189.322  0.00  0.00    -0.031 Br
ATOM     88  H   UNL     1     145.618 172.645 191.560  0.00  0.00    +0.166 HD
ATOM     89  H   UNL     1     147.491 173.516 193.482  0.00  0.00    +0.064 HD
ATOM     90  H   UNL     1     149.773 173.003 194.330  0.00  0.00    +0.062 HD
ATOM     91  H   UNL     1     151.070 171.125 193.387  0.00  0.00    +0.062 HD
ATOM     92  H   UNL     1     150.134 169.727 191.579  0.00  0.00    +0.062 HD
ENDBRANCH  75  78
ENDBRANCH  12  75
TORSDOF 10
ENDMDL
MODEL 5
REMARK VINA RESULT:      -6.8      3.499      6.351
REMARK  Name = Jasplakinolide_conf1
REMARK  10 active torsions:
REMARK  status: ('A' for Active; 'I' for Inactive)
REMARK    1  A    between atoms: C_1  and  C_2
REMARK    2  A    between atoms: C_4  and  C_47
REMARK    3  A    between atoms: C_9  and  C_40
REMARK    4  A    between atoms: C_13  and  C_29
REMARK    5  A    between atoms: N_14  and  C_28
REMARK    6  A    between atoms: C_17  and  C_27
REMARK    7  A    between atoms: C_21  and  C_26
REMARK    8  A    between atoms: C_23  and  C_25
REMARK    9  A    between atoms: C_29  and  C_30
REMARK   10  A    between atoms: C_43  and  O_46
REMARK                            x       y       z     vdW  Elec       q    Type
REMARK                         _______ _______ _______ _____ _____    ______ ____
ROOT
ATOM      1  C   UNL     1     143.447 170.479 190.718  0.00  0.00    -0.022 C 
ATOM      2  C   UNL     1     144.297 171.772 190.760  0.00  0.00    -0.010 C 
ATOM      3  C   UNL     1     145.747 171.643 190.254  0.00  0.00    +0.101 C 
ATOM      4  O   UNL     1     146.442 170.746 191.144  0.00  0.00    -0.462 OA
ATOM      5  C   UNL     1     147.793 170.865 191.187  0.00  0.00    +0.309 C 
ATOM      6  O   UNL     1     148.449 171.696 190.571  0.00  0.00    -0.251 OA
ATOM      7  C   UNL     1     148.402 169.904 192.171  0.00  0.00    +0.067 C 
ATOM      8  C   UNL     1     147.957 168.455 191.946  0.00  0.00    +0.058 C 
ATOM      9  N   UNL     1     148.438 167.933 190.676  0.00  0.00    -0.306 N 
ATOM     10  C   UNL     1     147.668 167.112 189.874  0.00  0.00    +0.234 C 
ATOM     11  O   UNL     1     146.522 166.778 190.172  0.00  0.00    -0.274 OA
ATOM     12  C   UNL     1     148.376 166.637 188.581  0.00  0.00    +0.106 C 
ATOM     13  N   UNL     1     147.428 166.673 187.440  0.00  0.00    -0.291 N 
ATOM     14  C   UNL     1     147.404 167.811 186.644  0.00  0.00    +0.236 C 
ATOM     15  O   UNL     1     148.063 168.816 186.940  0.00  0.00    -0.274 OA
ATOM     16  C   UNL     1     146.506 167.827 185.386  0.00  0.00    +0.097 C 
ATOM     17  N   UNL     1     145.434 168.784 185.634  0.00  0.00    -0.304 N 
ATOM     18  C   UNL     1     144.119 168.406 185.762  0.00  0.00    +0.217 C 
ATOM     19  O   UNL     1     143.735 167.253 185.595  0.00  0.00    -0.275 OA
ATOM     20  C   UNL     1     143.171 169.555 186.079  0.00  0.00    +0.036 C 
ATOM     21  C   UNL     1     142.200 169.181 187.210  0.00  0.00    -0.021 C 
ATOM     22  C   UNL     1     142.862 169.175 188.580  0.00  0.00    -0.076 C 
ATOM     23  C   UNL     1     142.818 170.277 189.354  0.00  0.00    -0.082 C 
ATOM     24  H   UNL     1     144.088 169.635 190.992  0.00  0.00    +0.034 HD
ATOM     25  H   UNL     1     143.794 172.576 190.206  0.00  0.00    +0.031 HD
ATOM     26  H   UNL     1     144.356 172.108 191.804  0.00  0.00    +0.031 HD
ATOM     27  H   UNL     1     146.195 172.644 190.327  0.00  0.00    +0.073 HD
ATOM     28  H   UNL     1     148.136 170.251 193.176  0.00  0.00    +0.040 HD
ATOM     29  H   UNL     1     149.491 169.996 192.072  0.00  0.00    +0.040 HD
ATOM     30  H   UNL     1     146.859 168.432 191.932  0.00  0.00    +0.055 HD
ATOM     31  H   UNL     1     149.417 168.060 190.446  0.00  0.00    +0.149 HD
ATOM     32  H   UNL     1     149.163 167.371 188.369  0.00  0.00    +0.060 HD
ATOM     33  H   UNL     1     146.095 166.840 185.168  0.00  0.00    +0.059 HD
ATOM     34  H   UNL     1     145.713 169.728 185.880  0.00  0.00    +0.149 HD
ATOM     35  H   UNL     1     143.748 170.440 186.374  0.00  0.00    +0.039 HD
ATOM     36  H   UNL     1     141.373 169.903 187.222  0.00  0.00    +0.032 HD
ATOM     37  H   UNL     1     141.729 168.208 187.025  0.00  0.00    +0.032 HD
ATOM     38  H   UNL     1     142.286 171.149 188.970  0.00  0.00    +0.057 HD
ENDROOT
BRANCH   8  39
ATOM     39  C   UNL     1     148.426 167.535 193.067  0.00  0.00    -0.026 A 
ATOM     40  C   UNL     1     149.758 167.095 193.169  0.00  0.00    -0.053 A 
ATOM     41  C   UNL     1     150.146 166.229 194.194  0.00  0.00    -0.020 A 
ATOM     42  C   UNL     1     149.206 165.781 195.112  0.00  0.00    +0.117 A 
ATOM     43  C   UNL     1     147.881 166.192 195.031  0.00  0.00    -0.020 A 
ATOM     44  C   UNL     1     147.494 167.062 194.007  0.00  0.00    -0.053 A 
ATOM     45  H   UNL     1     150.507 167.403 192.443  0.00  0.00    +0.062 HD
ATOM     46  H   UNL     1     151.178 165.897 194.264  0.00  0.00    +0.065 HD
ATOM     47  H   UNL     1     147.134 165.837 195.733  0.00  0.00    +0.065 HD
ATOM     48  H   UNL     1     146.448 167.357 193.931  0.00  0.00    +0.062 HD
BRANCH  42  49
ATOM     49  O   UNL     1     149.624 164.911 196.076  0.00  0.00    -0.507 OA
ATOM     50  H   UNL     1     149.208 164.048 195.911  0.00  0.00    +0.292 HD
ENDBRANCH  42  49
ENDBRANCH   8  39
BRANCH   1  51
ATOM     51  C   UNL     1     142.321 170.559 191.756  0.00  0.00    -0.059 C 
ATOM     52  H   UNL     1     141.373 170.215 191.327  0.00  0.00    +0.024 HD
ATOM     53  H   UNL     1     142.173 171.590 192.098  0.00  0.00    +0.024 HD
ATOM     54  H   UNL     1     142.538 169.939 192.635  0.00  0.00    +0.024 HD
ENDBRANCH   1  51
BRANCH  22  55
ATOM     55  C   UNL     1     143.509 167.877 188.987  0.00  0.00    -0.044 C 
ATOM     56  H   UNL     1     144.556 167.851 188.665  0.00  0.00    +0.027 HD
ATOM     57  H   UNL     1     143.477 167.762 190.073  0.00  0.00    +0.027 HD
ATOM     58  H   UNL     1     143.030 167.003 188.537  0.00  0.00    +0.027 HD
ENDBRANCH  22  55
BRANCH  20  59
ATOM     59  C   UNL     1     142.408 169.898 184.799  0.00  0.00    -0.054 C 
ATOM     60  H   UNL     1     143.094 170.103 183.969  0.00  0.00    +0.024 HD
ATOM     61  H   UNL     1     141.752 169.073 184.504  0.00  0.00    +0.024 HD
ATOM     62  H   UNL     1     141.787 170.789 184.943  0.00  0.00    +0.024 HD
ENDBRANCH  20  59
BRANCH  16  63
ATOM     63  C   UNL     1     147.323 168.267 184.175  0.00  0.00    -0.038 C 
ATOM     64  H   UNL     1     147.760 167.402 183.666  0.00  0.00    +0.025 HD
ATOM     65  H   UNL     1     146.708 168.802 183.442  0.00  0.00    +0.025 HD
ATOM     66  H   UNL     1     148.136 168.935 184.477  0.00  0.00    +0.025 HD
ENDBRANCH  16  63
BRANCH  13  67
ATOM     67  C   UNL     1     146.455 165.592 187.311  0.00  0.00    +0.004 C 
ATOM     68  H   UNL     1     146.949 164.644 187.093  0.00  0.00    +0.043 HD
ATOM     69  H   UNL     1     145.752 165.789 186.497  0.00  0.00    +0.043 HD
ATOM     70  H   UNL     1     145.906 165.513 188.256  0.00  0.00    +0.043 HD
ENDBRANCH  13  67
BRANCH   3  71
ATOM     71  C   UNL     1     145.873 171.146 188.818  0.00  0.00    -0.028 C 
ATOM     72  H   UNL     1     145.147 171.651 188.173  0.00  0.00    +0.027 HD
ATOM     73  H   UNL     1     146.853 171.380 188.397  0.00  0.00    +0.027 HD
ATOM     74  H   UNL     1     145.684 170.072 188.749  0.00  0.00    +0.027 HD
ENDBRANCH   3  71
BRANCH  12  75
ATOM     75  C   UNL     1     149.063 165.269 188.758  0.00  0.00    +0.003 C 
ATOM     76  H   UNL     1     148.924 164.900 189.778  0.00  0.00    +0.034 HD
ATOM     77  H   UNL     1     148.560 164.534 188.114  0.00  0.00    +0.034 HD
BRANCH  75  78
ATOM     78  C   UNL     1     150.526 165.265 188.426  0.00  0.00    -0.006 A 
ATOM     79  C   UNL     1     151.100 165.180 187.173  0.00  0.00    +0.087 A 
ATOM     80  N   UNL     1     152.455 165.158 187.303  0.00  0.00    -0.349 N 
ATOM     81  C   UNL     1     152.803 165.246 188.631  0.00  0.00    +0.048 A 
ATOM     82  C   UNL     1     154.068 165.251 189.229  0.00  0.00    -0.038 A 
ATOM     83  C   UNL     1     154.123 165.350 190.623  0.00  0.00    -0.060 A 
ATOM     84  C   UNL     1     152.959 165.447 191.380  0.00  0.00    -0.061 A 
ATOM     85  C   UNL     1     151.703 165.441 190.764  0.00  0.00    -0.052 A 
ATOM     86  C   UNL     1     151.616 165.334 189.359  0.00  0.00    +0.004 A 
ATOM     87 BR   UNL     1     150.210 165.077 185.493  0.00  0.00    -0.031 Br
ATOM     88  H   UNL     1     153.103 165.057 186.534  0.00  0.00    +0.166 HD
ATOM     89  H   UNL     1     154.977 165.185 188.640  0.00  0.00    +0.064 HD
ATOM     90  H   UNL     1     155.090 165.359 191.119  0.00  0.00    +0.062 HD
ATOM     91  H   UNL     1     153.026 165.531 192.462  0.00  0.00    +0.062 HD
ATOM     92  H   UNL     1     150.808 165.524 191.374  0.00  0.00    +0.062 HD
ENDBRANCH  75  78
ENDBRANCH  12  75
TORSDOF 10
ENDMDL
MODEL 6
REMARK VINA RESULT:      -6.4      3.141      5.123
REMARK  Name = Jasplakinolide_conf1
REMARK  10 active torsions:
REMARK  status: ('A' for Active; 'I' for Inactive)
REMARK    1  A    between atoms: C_1  and  C_2
REMARK    2  A    between atoms: C_4  and  C_47
REMARK    3  A    between atoms: C_9  and  C_40
REMARK    4  A    between atoms: C_13  and  C_29
REMARK    5  A    between atoms: N_14  and  C_28
REMARK    6  A    between atoms: C_17  and  C_27
REMARK    7  A    between atoms: C_21  and  C_26
REMARK    8  A    between atoms: C_23  and  C_25
REMARK    9  A    between atoms: C_29  and  C_30
REMARK   10  A    between atoms: C_43  and  O_46
REMARK                            x       y       z     vdW  Elec       q    Type
REMARK                         _______ _______ _______ _____ _____    ______ ____
ROOT
ATOM      1  C   UNL     1     146.256 166.225 184.277  0.00  0.00    -0.022 C 
ATOM      2  C   UNL     1     146.179 164.683 184.381  0.00  0.00    -0.010 C 
ATOM      3  C   UNL     1     146.306 164.095 185.800  0.00  0.00    +0.101 C 
ATOM      4  O   UNL     1     147.627 164.407 186.285  0.00  0.00    -0.462 OA
ATOM      5  C   UNL     1     148.117 163.604 187.263  0.00  0.00    +0.309 C 
ATOM      6  O   UNL     1     147.546 162.622 187.723  0.00  0.00    -0.251 OA
ATOM      7  C   UNL     1     149.510 164.005 187.664  0.00  0.00    +0.067 C 
ATOM      8  C   UNL     1     149.625 165.489 188.025  0.00  0.00    +0.058 C 
ATOM      9  N   UNL     1     148.862 165.816 189.220  0.00  0.00    -0.306 N 
ATOM     10  C   UNL     1     148.150 166.994 189.345  0.00  0.00    +0.234 C 
ATOM     11  O   UNL     1     148.103 167.839 188.452  0.00  0.00    -0.274 OA
ATOM     12  C   UNL     1     147.433 167.165 190.708  0.00  0.00    +0.106 C 
ATOM     13  N   UNL     1     146.082 167.742 190.502  0.00  0.00    -0.291 N 
ATOM     14  C   UNL     1     145.007 166.868 190.392  0.00  0.00    +0.236 C 
ATOM     15  O   UNL     1     145.176 165.644 190.346  0.00  0.00    -0.274 OA
ATOM     16  C   UNL     1     143.578 167.448 190.289  0.00  0.00    +0.097 C 
ATOM     17  N   UNL     1     143.093 167.163 188.943  0.00  0.00    -0.304 N 
ATOM     18  C   UNL     1     142.851 168.151 188.019  0.00  0.00    +0.217 C 
ATOM     19  O   UNL     1     142.942 169.347 188.278  0.00  0.00    -0.275 OA
ATOM     20  C   UNL     1     142.409 167.631 186.658  0.00  0.00    +0.036 C 
ATOM     21  C   UNL     1     143.166 168.335 185.520  0.00  0.00    -0.021 C 
ATOM     22  C   UNL     1     144.603 167.856 185.383  0.00  0.00    -0.076 C 
ATOM     23  C   UNL     1     144.904 166.862 184.523  0.00  0.00    -0.082 C 
ATOM     24  H   UNL     1     147.003 166.584 184.992  0.00  0.00    +0.034 HD
ATOM     25  H   UNL     1     145.251 164.316 183.923  0.00  0.00    +0.031 HD
ATOM     26  H   UNL     1     147.003 164.259 183.790  0.00  0.00    +0.031 HD
ATOM     27  H   UNL     1     146.206 163.006 185.699  0.00  0.00    +0.073 HD
ATOM     28  H   UNL     1     150.177 163.744 186.835  0.00  0.00    +0.040 HD
ATOM     29  H   UNL     1     149.789 163.374 188.518  0.00  0.00    +0.040 HD
ATOM     30  H   UNL     1     149.222 166.077 187.190  0.00  0.00    +0.055 HD
ATOM     31  H   UNL     1     148.975 165.225 190.036  0.00  0.00    +0.149 HD
ATOM     32  H   UNL     1     147.295 166.156 191.115  0.00  0.00    +0.060 HD
ATOM     33  H   UNL     1     143.561 168.523 190.483  0.00  0.00    +0.059 HD
ATOM     34  H   UNL     1     143.100 166.192 188.652  0.00  0.00    +0.149 HD
ATOM     35  H   UNL     1     142.587 166.550 186.599  0.00  0.00    +0.039 HD
ATOM     36  H   UNL     1     142.640 168.146 184.574  0.00  0.00    +0.032 HD
ATOM     37  H   UNL     1     143.150 169.424 185.645  0.00  0.00    +0.032 HD
ATOM     38  H   UNL     1     144.091 166.436 183.933  0.00  0.00    +0.057 HD
ENDROOT
BRANCH   8  39
ATOM     39  C   UNL     1     151.075 165.914 188.235  0.00  0.00    -0.026 A 
ATOM     40  C   UNL     1     151.671 166.940 187.482  0.00  0.00    -0.053 A 
ATOM     41  C   UNL     1     153.011 167.284 187.681  0.00  0.00    -0.020 A 
ATOM     42  C   UNL     1     153.769 166.593 188.618  0.00  0.00    +0.117 A 
ATOM     43  C   UNL     1     153.207 165.568 189.370  0.00  0.00    -0.020 A 
ATOM     44  C   UNL     1     151.865 165.228 189.173  0.00  0.00    -0.053 A 
ATOM     45  H   UNL     1     151.111 167.474 186.718  0.00  0.00    +0.062 HD
ATOM     46  H   UNL     1     153.462 168.080 187.096  0.00  0.00    +0.065 HD
ATOM     47  H   UNL     1     153.793 165.010 190.094  0.00  0.00    +0.065 HD
ATOM     48  H   UNL     1     151.440 164.403 189.744  0.00  0.00    +0.062 HD
BRANCH  42  49
ATOM     49  O   UNL     1     155.080 166.941 188.755  0.00  0.00    -0.507 OA
ATOM     50  H   UNL     1     155.137 167.674 189.392  0.00  0.00    +0.292 HD
ENDBRANCH  42  49
ENDBRANCH   8  39
BRANCH   1  51
ATOM     51  C   UNL     1     146.727 166.632 182.876  0.00  0.00    -0.059 C 
ATOM     52  H   UNL     1     146.116 166.149 182.105  0.00  0.00    +0.024 HD
ATOM     53  H   UNL     1     147.768 166.332 182.706  0.00  0.00    +0.024 HD
ATOM     54  H   UNL     1     146.661 167.717 182.727  0.00  0.00    +0.024 HD
ENDBRANCH   1  51
BRANCH  22  55
ATOM     55  C   UNL     1     145.617 168.584 186.227  0.00  0.00    -0.044 C 
ATOM     56  H   UNL     1     146.207 169.273 185.611  0.00  0.00    +0.027 HD
ATOM     57  H   UNL     1     145.115 169.161 187.008  0.00  0.00    +0.027 HD
ATOM     58  H   UNL     1     146.334 167.912 186.706  0.00  0.00    +0.027 HD
ENDBRANCH  22  55
BRANCH  20  59
ATOM     59  C   UNL     1     140.903 167.866 186.535  0.00  0.00    -0.054 C 
ATOM     60  H   UNL     1     140.671 168.935 186.455  0.00  0.00    +0.024 HD
ATOM     61  H   UNL     1     140.501 167.362 185.651  0.00  0.00    +0.024 HD
ATOM     62  H   UNL     1     140.376 167.479 187.414  0.00  0.00    +0.024 HD
ENDBRANCH  20  59
BRANCH  16  63
ATOM     63  C   UNL     1     142.674 166.777 191.319  0.00  0.00    -0.038 C 
ATOM     64  H   UNL     1     142.497 165.729 191.056  0.00  0.00    +0.025 HD
ATOM     65  H   UNL     1     143.117 166.794 192.321  0.00  0.00    +0.025 HD
ATOM     66  H   UNL     1     141.706 167.285 191.375  0.00  0.00    +0.025 HD
ENDBRANCH  16  63
BRANCH  13  67
ATOM     67  C   UNL     1     145.969 169.176 190.256  0.00  0.00    +0.004 C 
ATOM     68  H   UNL     1     146.652 169.494 189.467  0.00  0.00    +0.043 HD
ATOM     69  H   UNL     1     146.215 169.752 191.152  0.00  0.00    +0.043 HD
ATOM     70  H   UNL     1     144.936 169.390 189.957  0.00  0.00    +0.043 HD
ENDBRANCH  13  67
BRANCH   3  71
ATOM     71  C   UNL     1     145.260 164.601 186.788  0.00  0.00    -0.028 C 
ATOM     72  H   UNL     1     145.740 164.949 187.709  0.00  0.00    +0.027 HD
ATOM     73  H   UNL     1     144.720 165.464 186.393  0.00  0.00    +0.027 HD
ATOM     74  H   UNL     1     144.555 163.813 187.062  0.00  0.00    +0.027 HD
ENDBRANCH   3  71
BRANCH  12  75
ATOM     75  C   UNL     1     148.284 167.955 191.721  0.00  0.00    +0.003 C 
ATOM     76  H   UNL     1     148.984 168.615 191.201  0.00  0.00    +0.034 HD
ATOM     77  H   UNL     1     147.625 168.624 192.291  0.00  0.00    +0.034 HD
BRANCH  75  78
ATOM     78  C   UNL     1     149.040 167.098 192.693  0.00  0.00    -0.006 A 
ATOM     79  C   UNL     1     148.515 166.271 193.665  0.00  0.00    +0.087 A 
ATOM     80  N   UNL     1     149.534 165.705 194.370  0.00  0.00    -0.349 N 
ATOM     81  C   UNL     1     150.743 166.128 193.871  0.00  0.00    +0.048 A 
ATOM     82  C   UNL     1     152.044 165.816 194.284  0.00  0.00    -0.038 A 
ATOM     83  C   UNL     1     153.101 166.403 193.583  0.00  0.00    -0.060 A 
ATOM     84  C   UNL     1     152.864 167.259 192.512  0.00  0.00    -0.061 A 
ATOM     85  C   UNL     1     151.557 167.558 192.112  0.00  0.00    -0.052 A 
ATOM     86  C   UNL     1     150.468 166.987 192.806  0.00  0.00    +0.004 A 
ATOM     87 BR   UNL     1     146.677 165.944 194.042  0.00  0.00    -0.031 Br
ATOM     88  H   UNL     1     149.410 165.092 195.164  0.00  0.00    +0.166 HD
ATOM     89  H   UNL     1     152.231 165.142 195.113  0.00  0.00    +0.064 HD
ATOM     90  H   UNL     1     154.125 166.180 193.877  0.00  0.00    +0.062 HD
ATOM     91  H   UNL     1     153.703 167.697 191.976  0.00  0.00    +0.062 HD
ATOM     92  H   UNL     1     151.395 168.223 191.270  0.00  0.00    +0.062 HD
ENDBRANCH  75  78
ENDBRANCH  12  75
TORSDOF 10
ENDMDL
MODEL 7
REMARK VINA RESULT:      -6.2      4.494      6.532
REMARK  Name = Jasplakinolide_conf1
REMARK  10 active torsions:
REMARK  status: ('A' for Active; 'I' for Inactive)
REMARK    1  A    between atoms: C_1  and  C_2
REMARK    2  A    between atoms: C_4  and  C_47
REMARK    3  A    between atoms: C_9  and  C_40
REMARK    4  A    between atoms: C_13  and  C_29
REMARK    5  A    between atoms: N_14  and  C_28
REMARK    6  A    between atoms: C_17  and  C_27
REMARK    7  A    between atoms: C_21  and  C_26
REMARK    8  A    between atoms: C_23  and  C_25
REMARK    9  A    between atoms: C_29  and  C_30
REMARK   10  A    between atoms: C_43  and  O_46
REMARK                            x       y       z     vdW  Elec       q    Type
REMARK                         _______ _______ _______ _____ _____    ______ ____
ROOT
ATOM      1  C   UNL     1     149.177 164.870 183.923  0.00  0.00    -0.022 C 
ATOM      2  C   UNL     1     148.943 163.364 184.199  0.00  0.00    -0.010 C 
ATOM      3  C   UNL     1     148.755 162.971 185.677  0.00  0.00    +0.101 C 
ATOM      4  O   UNL     1     149.987 163.260 186.367  0.00  0.00    -0.462 OA
ATOM      5  C   UNL     1     150.216 162.568 187.512  0.00  0.00    +0.309 C 
ATOM      6  O   UNL     1     149.485 161.698 187.969  0.00  0.00    -0.251 OA
ATOM      7  C   UNL     1     151.541 162.929 188.123  0.00  0.00    +0.067 C 
ATOM      8  C   UNL     1     151.721 164.439 188.314  0.00  0.00    +0.058 C 
ATOM      9  N   UNL     1     150.784 164.976 189.289  0.00  0.00    -0.306 N 
ATOM     10  C   UNL     1     150.170 166.203 189.129  0.00  0.00    +0.234 C 
ATOM     11  O   UNL     1     150.364 166.919 188.146  0.00  0.00    -0.274 OA
ATOM     12  C   UNL     1     149.234 166.606 190.295  0.00  0.00    +0.106 C 
ATOM     13  N   UNL     1     148.001 167.235 189.763  0.00  0.00    -0.291 N 
ATOM     14  C   UNL     1     146.890 166.426 189.555  0.00  0.00    +0.236 C 
ATOM     15  O   UNL     1     146.954 165.199 189.694  0.00  0.00    -0.274 OA
ATOM     16  C   UNL     1     145.562 167.078 189.107  0.00  0.00    +0.097 C 
ATOM     17  N   UNL     1     145.309 166.643 187.738  0.00  0.00    -0.304 N 
ATOM     18  C   UNL     1     145.329 167.507 186.671  0.00  0.00    +0.217 C 
ATOM     19  O   UNL     1     145.478 168.720 186.793  0.00  0.00    -0.275 OA
ATOM     20  C   UNL     1     145.100 166.836 185.323  0.00  0.00    +0.036 C 
ATOM     21  C   UNL     1     146.112 167.326 184.276  0.00  0.00    -0.021 C 
ATOM     22  C   UNL     1     147.502 166.740 184.479  0.00  0.00    -0.076 C 
ATOM     23  C   UNL     1     147.864 165.620 183.822  0.00  0.00    -0.082 C 
ATOM     24  H   UNL     1     149.809 165.274 184.720  0.00  0.00    +0.034 HD
ATOM     25  H   UNL     1     148.086 162.999 183.619  0.00  0.00    +0.031 HD
ATOM     26  H   UNL     1     149.820 162.811 183.835  0.00  0.00    +0.031 HD
ATOM     27  H   UNL     1     148.578 161.887 185.692  0.00  0.00    +0.073 HD
ATOM     28  H   UNL     1     152.324 162.514 187.476  0.00  0.00    +0.040 HD
ATOM     29  H   UNL     1     151.602 162.405 189.085  0.00  0.00    +0.040 HD
ATOM     30  H   UNL     1     151.532 164.931 187.351  0.00  0.00    +0.055 HD
ATOM     31  H   UNL     1     150.693 164.497 190.178  0.00  0.00    +0.149 HD
ATOM     32  H   UNL     1     148.933 165.673 190.789  0.00  0.00    +0.060 HD
ATOM     33  H   UNL     1     145.606 168.168 189.161  0.00  0.00    +0.059 HD
ATOM     34  H   UNL     1     145.282 165.642 187.576  0.00  0.00    +0.149 HD
ATOM     35  H   UNL     1     145.188 165.748 185.433  0.00  0.00    +0.039 HD
ATOM     36  H   UNL     1     145.754 167.043 183.277  0.00  0.00    +0.032 HD
ATOM     37  H   UNL     1     146.172 168.420 184.262  0.00  0.00    +0.032 HD
ATOM     38  H   UNL     1     147.138 165.171 183.143  0.00  0.00    +0.057 HD
ENDROOT
BRANCH   8  39
ATOM     39  C   UNL     1     153.140 164.794 188.747  0.00  0.00    -0.026 A 
ATOM     40  C   UNL     1     153.957 163.891 189.450  0.00  0.00    -0.053 A 
ATOM     41  C   UNL     1     155.242 164.259 189.855  0.00  0.00    -0.020 A 
ATOM     42  C   UNL     1     155.713 165.536 189.579  0.00  0.00    +0.117 A 
ATOM     43  C   UNL     1     154.924 166.452 188.894  0.00  0.00    -0.020 A 
ATOM     44  C   UNL     1     153.640 166.081 188.484  0.00  0.00    -0.053 A 
ATOM     45  H   UNL     1     153.600 162.897 189.709  0.00  0.00    +0.062 HD
ATOM     46  H   UNL     1     155.866 163.553 190.395  0.00  0.00    +0.065 HD
ATOM     47  H   UNL     1     155.275 167.458 188.685  0.00  0.00    +0.065 HD
ATOM     48  H   UNL     1     153.015 166.813 187.974  0.00  0.00    +0.062 HD
BRANCH  42  49
ATOM     49  O   UNL     1     156.961 165.862 190.022  0.00  0.00    -0.507 OA
ATOM     50  H   UNL     1     157.301 165.121 190.551  0.00  0.00    +0.292 HD
ENDBRANCH  42  49
ENDBRANCH   8  39
BRANCH   1  51
ATOM     51  C   UNL     1     149.931 165.048 182.601  0.00  0.00    -0.059 C 
ATOM     52  H   UNL     1     151.009 165.132 182.776  0.00  0.00    +0.024 HD
ATOM     53  H   UNL     1     149.610 165.961 182.083  0.00  0.00    +0.024 HD
ATOM     54  H   UNL     1     149.765 164.201 181.924  0.00  0.00    +0.024 HD
ENDBRANCH   1  51
BRANCH  22  55
ATOM     55  C   UNL     1     148.404 167.510 185.408  0.00  0.00    -0.044 C 
ATOM     56  H   UNL     1     148.105 168.564 185.449  0.00  0.00    +0.027 HD
ATOM     57  H   UNL     1     148.352 167.096 186.418  0.00  0.00    +0.027 HD
ATOM     58  H   UNL     1     149.450 167.502 185.090  0.00  0.00    +0.027 HD
ENDBRANCH  22  55
BRANCH  20  59
ATOM     59  C   UNL     1     143.669 167.148 184.884  0.00  0.00    -0.054 C 
ATOM     60  H   UNL     1     143.473 166.779 183.870  0.00  0.00    +0.024 HD
ATOM     61  H   UNL     1     142.944 166.687 185.561  0.00  0.00    +0.024 HD
ATOM     62  H   UNL     1     143.490 168.229 184.882  0.00  0.00    +0.024 HD
ENDBRANCH  20  59
BRANCH  16  63
ATOM     63  C   UNL     1     144.428 166.615 190.017  0.00  0.00    -0.038 C 
ATOM     64  H   UNL     1     144.778 165.845 190.712  0.00  0.00    +0.025 HD
ATOM     65  H   UNL     1     144.024 167.440 190.615  0.00  0.00    +0.025 HD
ATOM     66  H   UNL     1     143.604 166.198 189.428  0.00  0.00    +0.025 HD
ENDBRANCH  16  63
BRANCH  13  67
ATOM     67  C   UNL     1     148.063 168.626 189.325  0.00  0.00    +0.004 C 
ATOM     68  H   UNL     1     147.313 168.831 188.560  0.00  0.00    +0.043 HD
ATOM     69  H   UNL     1     149.041 168.862 188.895  0.00  0.00    +0.043 HD
ATOM     70  H   UNL     1     147.886 169.267 190.197  0.00  0.00    +0.043 HD
ENDBRANCH  13  67
BRANCH   3  71
ATOM     71  C   UNL     1     147.596 163.674 186.374  0.00  0.00    -0.028 C 
ATOM     72  H   UNL     1     147.562 164.731 186.091  0.00  0.00    +0.027 HD
ATOM     73  H   UNL     1     146.633 163.257 186.070  0.00  0.00    +0.027 HD
ATOM     74  H   UNL     1     147.695 163.627 187.461  0.00  0.00    +0.027 HD
ENDBRANCH   3  71
BRANCH  12  75
ATOM     75  C   UNL     1     149.952 167.471 191.350  0.00  0.00    +0.003 C 
ATOM     76  H   UNL     1     150.928 167.795 190.978  0.00  0.00    +0.034 HD
ATOM     77  H   UNL     1     149.377 168.395 191.500  0.00  0.00    +0.034 HD
BRANCH  75  78
ATOM     78  C   UNL     1     150.126 166.802 192.682  0.00  0.00    -0.006 A 
ATOM     79  C   UNL     1     151.272 166.220 193.183  0.00  0.00    +0.087 A 
ATOM     80  N   UNL     1     151.003 165.680 194.404  0.00  0.00    -0.349 N 
ATOM     81  C   UNL     1     149.689 165.910 194.741  0.00  0.00    +0.048 A 
ATOM     82  C   UNL     1     148.977 165.534 195.886  0.00  0.00    -0.038 A 
ATOM     83  C   UNL     1     147.632 165.906 195.960  0.00  0.00    -0.060 A 
ATOM     84  C   UNL     1     147.030 166.629 194.934  0.00  0.00    -0.061 A 
ATOM     85  C   UNL     1     147.759 166.997 193.797  0.00  0.00    -0.052 A 
ATOM     86  C   UNL     1     149.117 166.628 193.690  0.00  0.00    +0.004 A 
ATOM     87 BR   UNL     1     152.982 166.119 192.351  0.00  0.00    -0.031 Br
ATOM     88  H   UNL     1     151.667 165.160 194.960  0.00  0.00    +0.166 HD
ATOM     89  H   UNL     1     149.446 164.978 196.691  0.00  0.00    +0.064 HD
ATOM     90  H   UNL     1     147.050 165.631 196.837  0.00  0.00    +0.062 HD
ATOM     91  H   UNL     1     145.984 166.914 195.017  0.00  0.00    +0.062 HD
ATOM     92  H   UNL     1     147.271 167.566 193.011  0.00  0.00    +0.062 HD
ENDBRANCH  75  78
ENDBRANCH  12  75
TORSDOF 10
ENDMDL
MODEL 8
REMARK VINA RESULT:      -6.2      3.803      6.691
REMARK  Name = Jasplakinolide_conf1
REMARK  10 active torsions:
REMARK  status: ('A' for Active; 'I' for Inactive)
REMARK    1  A    between atoms: C_1  and  C_2
REMARK    2  A    between atoms: C_4  and  C_47
REMARK    3  A    between atoms: C_9  and  C_40
REMARK    4  A    between atoms: C_13  and  C_29
REMARK    5  A    between atoms: N_14  and  C_28
REMARK    6  A    between atoms: C_17  and  C_27
REMARK    7  A    between atoms: C_21  and  C_26
REMARK    8  A    between atoms: C_23  and  C_25
REMARK    9  A    between atoms: C_29  and  C_30
REMARK   10  A    between atoms: C_43  and  O_46
REMARK                            x       y       z     vdW  Elec       q    Type
REMARK                         _______ _______ _______ _____ _____    ______ ____
ROOT
ATOM      1  C   UNL     1     143.388 170.552 190.748  0.00  0.00    -0.022 C 
ATOM      2  C   UNL     1     144.251 171.837 190.785  0.00  0.00    -0.010 C 
ATOM      3  C   UNL     1     145.697 171.693 190.271  0.00  0.00    +0.101 C 
ATOM      4  O   UNL     1     146.387 170.788 191.156  0.00  0.00    -0.462 OA
ATOM      5  C   UNL     1     147.740 170.893 191.192  0.00  0.00    +0.309 C 
ATOM      6  O   UNL     1     148.401 171.717 190.573  0.00  0.00    -0.251 OA
ATOM      7  C   UNL     1     148.345 169.925 192.171  0.00  0.00    +0.067 C 
ATOM      8  C   UNL     1     147.883 168.481 191.948  0.00  0.00    +0.058 C 
ATOM      9  N   UNL     1     148.351 167.954 190.676  0.00  0.00    -0.306 N 
ATOM     10  C   UNL     1     147.568 167.142 189.877  0.00  0.00    +0.234 C 
ATOM     11  O   UNL     1     146.420 166.820 190.182  0.00  0.00    -0.274 OA
ATOM     12  C   UNL     1     148.264 166.661 188.580  0.00  0.00    +0.106 C 
ATOM     13  N   UNL     1     147.310 166.707 187.445  0.00  0.00    -0.291 N 
ATOM     14  C   UNL     1     147.294 167.846 186.650  0.00  0.00    +0.236 C 
ATOM     15  O   UNL     1     147.964 168.844 186.942  0.00  0.00    -0.274 OA
ATOM     16  C   UNL     1     146.389 167.873 185.397  0.00  0.00    +0.097 C 
ATOM     17  N   UNL     1     145.327 168.840 185.652  0.00  0.00    -0.304 N 
ATOM     18  C   UNL     1     144.010 168.476 185.787  0.00  0.00    +0.217 C 
ATOM     19  O   UNL     1     143.612 167.327 185.621  0.00  0.00    -0.275 OA
ATOM     20  C   UNL     1     143.075 169.634 186.110  0.00  0.00    +0.036 C 
ATOM     21  C   UNL     1     142.107 169.269 187.246  0.00  0.00    -0.021 C 
ATOM     22  C   UNL     1     142.777 169.256 188.612  0.00  0.00    -0.076 C 
ATOM     23  C   UNL     1     142.749 170.358 189.388  0.00  0.00    -0.082 C 
ATOM     24  H   UNL     1     144.021 169.701 191.017  0.00  0.00    +0.034 HD
ATOM     25  H   UNL     1     143.754 172.646 190.235  0.00  0.00    +0.031 HD
ATOM     26  H   UNL     1     144.320 172.171 191.830  0.00  0.00    +0.031 HD
ATOM     27  H   UNL     1     146.155 172.688 190.342  0.00  0.00    +0.073 HD
ATOM     28  H   UNL     1     148.088 170.274 193.178  0.00  0.00    +0.040 HD
ATOM     29  H   UNL     1     149.434 170.006 192.067  0.00  0.00    +0.040 HD
ATOM     30  H   UNL     1     146.785 168.470 191.941  0.00  0.00    +0.055 HD
ATOM     31  H   UNL     1     149.330 168.072 190.440  0.00  0.00    +0.149 HD
ATOM     32  H   UNL     1     149.058 167.387 188.365  0.00  0.00    +0.060 HD
ATOM     33  H   UNL     1     145.966 166.889 185.180  0.00  0.00    +0.059 HD
ATOM     34  H   UNL     1     145.618 169.781 185.896  0.00  0.00    +0.149 HD
ATOM     35  H   UNL     1     143.663 170.513 186.402  0.00  0.00    +0.039 HD
ATOM     36  H   UNL     1     141.288 170.001 187.264  0.00  0.00    +0.032 HD
ATOM     37  H   UNL     1     141.625 168.301 187.063  0.00  0.00    +0.032 HD
ATOM     38  H   UNL     1     142.223 171.235 189.007  0.00  0.00    +0.057 HD
ENDROOT
BRANCH   8  39
ATOM     39  C   UNL     1     148.349 167.555 193.067  0.00  0.00    -0.026 A 
ATOM     40  C   UNL     1     149.672 167.085 193.149  0.00  0.00    -0.053 A 
ATOM     41  C   UNL     1     150.057 166.215 194.171  0.00  0.00    -0.020 A 
ATOM     42  C   UNL     1     149.122 165.793 195.107  0.00  0.00    +0.117 A 
ATOM     43  C   UNL     1     147.805 166.234 195.045  0.00  0.00    -0.020 A 
ATOM     44  C   UNL     1     147.422 167.109 194.024  0.00  0.00    -0.053 A 
ATOM     45  H   UNL     1     150.416 167.372 192.409  0.00  0.00    +0.062 HD
ATOM     46  H   UNL     1     151.082 165.859 194.227  0.00  0.00    +0.065 HD
ATOM     47  H   UNL     1     147.061 165.900 195.762  0.00  0.00    +0.065 HD
ATOM     48  H   UNL     1     146.382 167.427 193.963  0.00  0.00    +0.062 HD
BRANCH  42  49
ATOM     49  O   UNL     1     149.535 164.918 196.068  0.00  0.00    -0.507 OA
ATOM     50  H   UNL     1     149.174 165.210 196.923  0.00  0.00    +0.292 HD
ENDBRANCH  42  49
ENDBRANCH   8  39
BRANCH   1  51
ATOM     51  C   UNL     1     142.269 170.643 191.792  0.00  0.00    -0.059 C 
ATOM     52  H   UNL     1     141.440 171.256 191.420  0.00  0.00    +0.024 HD
ATOM     53  H   UNL     1     142.630 171.106 192.718  0.00  0.00    +0.024 HD
ATOM     54  H   UNL     1     141.869 169.652 192.042  0.00  0.00    +0.024 HD
ENDBRANCH   1  51
BRANCH  22  55
ATOM     55  C   UNL     1     143.412 167.950 189.014  0.00  0.00    -0.044 C 
ATOM     56  H   UNL     1     142.767 167.108 188.741  0.00  0.00    +0.027 HD
ATOM     57  H   UNL     1     144.375 167.826 188.511  0.00  0.00    +0.027 HD
ATOM     58  H   UNL     1     143.578 167.871 190.092  0.00  0.00    +0.027 HD
ENDBRANCH  22  55
BRANCH  20  59
ATOM     59  C   UNL     1     142.309 169.986 184.835  0.00  0.00    -0.054 C 
ATOM     60  H   UNL     1     142.626 169.359 183.993  0.00  0.00    +0.024 HD
ATOM     61  H   UNL     1     141.232 169.847 184.977  0.00  0.00    +0.024 HD
ATOM     62  H   UNL     1     142.481 171.030 184.553  0.00  0.00    +0.024 HD
ENDBRANCH  20  59
BRANCH  16  63
ATOM     63  C   UNL     1     147.203 168.305 184.181  0.00  0.00    -0.038 C 
ATOM     64  H   UNL     1     146.875 167.770 183.284  0.00  0.00    +0.025 HD
ATOM     65  H   UNL     1     147.096 169.377 183.981  0.00  0.00    +0.025 HD
ATOM     66  H   UNL     1     148.267 168.099 184.334  0.00  0.00    +0.025 HD
ENDBRANCH  16  63
BRANCH  13  67
ATOM     67  C   UNL     1     146.325 165.637 187.320  0.00  0.00    +0.004 C 
ATOM     68  H   UNL     1     146.369 165.176 186.332  0.00  0.00    +0.043 HD
ATOM     69  H   UNL     1     145.309 166.017 187.458  0.00  0.00    +0.043 HD
ATOM     70  H   UNL     1     146.540 164.885 188.088  0.00  0.00    +0.043 HD
ENDBRANCH  13  67
BRANCH   3  71
ATOM     71  C   UNL     1     145.809 171.195 188.834  0.00  0.00    -0.028 C 
ATOM     72  H   UNL     1     146.629 171.703 188.316  0.00  0.00    +0.027 HD
ATOM     73  H   UNL     1     146.052 170.131 188.796  0.00  0.00    +0.027 HD
ATOM     74  H   UNL     1     144.893 171.389 188.272  0.00  0.00    +0.027 HD
ENDBRANCH   3  71
BRANCH  12  75
ATOM     75  C   UNL     1     148.938 165.285 188.752  0.00  0.00    +0.003 C 
ATOM     76  H   UNL     1     149.031 165.035 189.813  0.00  0.00    +0.034 HD
ATOM     77  H   UNL     1     148.280 164.513 188.330  0.00  0.00    +0.034 HD
BRANCH  75  78
ATOM     78  C   UNL     1     150.282 165.170 188.096  0.00  0.00    -0.006 A 
ATOM     79  C   UNL     1     151.519 165.225 188.706  0.00  0.00    +0.087 A 
ATOM     80  N   UNL     1     152.490 165.130 187.756  0.00  0.00    -0.349 N 
ATOM     81  C   UNL     1     151.921 164.991 186.512  0.00  0.00    +0.048 A 
ATOM     82  C   UNL     1     152.526 164.869 185.256  0.00  0.00    -0.038 A 
ATOM     83  C   UNL     1     151.687 164.743 184.145  0.00  0.00    -0.060 A 
ATOM     84  C   UNL     1     150.303 164.734 184.289  0.00  0.00    -0.061 A 
ATOM     85  C   UNL     1     149.715 164.857 185.553  0.00  0.00    -0.052 A 
ATOM     86  C   UNL     1     150.537 164.993 186.693  0.00  0.00    +0.004 A 
ATOM     87 BR   UNL     1     151.890 165.430 190.562  0.00  0.00    -0.031 Br
ATOM     88  H   UNL     1     153.482 165.187 187.942  0.00  0.00    +0.166 HD
ATOM     89  H   UNL     1     153.605 164.867 185.142  0.00  0.00    +0.064 HD
ATOM     90  H   UNL     1     152.125 164.644 183.154  0.00  0.00    +0.062 HD
ATOM     91  H   UNL     1     149.670 164.628 183.412  0.00  0.00    +0.062 HD
ATOM     92  H   UNL     1     148.634 164.841 185.644  0.00  0.00    +0.062 HD
ENDBRANCH  75  78
ENDBRANCH  12  75
TORSDOF 10
ENDMDL
MODEL 9
REMARK VINA RESULT:      -6.2      2.553      5.911
REMARK  Name = Jasplakinolide_conf1
REMARK  10 active torsions:
REMARK  status: ('A' for Active; 'I' for Inactive)
REMARK    1  A    between atoms: C_1  and  C_2
REMARK    2  A    between atoms: C_4  and  C_47
REMARK    3  A    between atoms: C_9  and  C_40
REMARK    4  A    between atoms: C_13  and  C_29
REMARK    5  A    between atoms: N_14  and  C_28
REMARK    6  A    between atoms: C_17  and  C_27
REMARK    7  A    between atoms: C_21  and  C_26
REMARK    8  A    between atoms: C_23  and  C_25
REMARK    9  A    between atoms: C_29  and  C_30
REMARK   10  A    between atoms: C_43  and  O_46
REMARK                            x       y       z     vdW  Elec       q    Type
REMARK                         _______ _______ _______ _____ _____    ______ ____
ROOT
ATOM      1  C   UNL     1     141.463 172.510 188.840  0.00  0.00    -0.022 C 
ATOM      2  C   UNL     1     142.095 173.253 187.639  0.00  0.00    -0.010 C 
ATOM      3  C   UNL     1     143.351 172.601 187.028  0.00  0.00    +0.101 C 
ATOM      4  O   UNL     1     144.387 172.623 188.030  0.00  0.00    -0.462 OA
ATOM      5  C   UNL     1     145.666 172.560 187.579  0.00  0.00    +0.309 C 
ATOM      6  O   UNL     1     145.998 172.533 186.401  0.00  0.00    -0.251 OA
ATOM      7  C   UNL     1     146.655 172.623 188.710  0.00  0.00    +0.067 C 
ATOM      8  C   UNL     1     146.378 171.589 189.807  0.00  0.00    +0.058 C 
ATOM      9  N   UNL     1     146.557 170.228 189.324  0.00  0.00    -0.306 N 
ATOM     10  C   UNL     1     145.721 169.194 189.700  0.00  0.00    +0.234 C 
ATOM     11  O   UNL     1     144.763 169.355 190.454  0.00  0.00    -0.274 OA
ATOM     12  C   UNL     1     146.103 167.817 189.102  0.00  0.00    +0.106 C 
ATOM     13  N   UNL     1     144.880 167.089 188.680  0.00  0.00    -0.291 N 
ATOM     14  C   UNL     1     144.473 167.208 187.357  0.00  0.00    +0.236 C 
ATOM     15  O   UNL     1     145.036 167.987 186.578  0.00  0.00    -0.274 OA
ATOM     16  C   UNL     1     143.268 166.372 186.866  0.00  0.00    +0.097 C 
ATOM     17  N   UNL     1     142.181 167.305 186.591  0.00  0.00    -0.304 N 
ATOM     18  C   UNL     1     141.022 167.330 187.328  0.00  0.00    +0.217 C 
ATOM     19  O   UNL     1     140.776 166.520 188.217  0.00  0.00    -0.275 OA
ATOM     20  C   UNL     1     140.044 168.421 186.912  0.00  0.00    +0.036 C 
ATOM     21  C   UNL     1     139.490 169.169 188.134  0.00  0.00    -0.021 C 
ATOM     22  C   UNL     1     140.500 170.126 188.749  0.00  0.00    -0.076 C 
ATOM     23  C   UNL     1     140.515 171.422 188.377  0.00  0.00    -0.082 C 
ATOM     24  H   UNL     1     142.269 172.102 189.459  0.00  0.00    +0.034 HD
ATOM     25  H   UNL     1     141.349 173.405 186.849  0.00  0.00    +0.031 HD
ATOM     26  H   UNL     1     142.394 174.255 187.978  0.00  0.00    +0.031 HD
ATOM     27  H   UNL     1     143.653 173.235 186.182  0.00  0.00    +0.073 HD
ATOM     28  H   UNL     1     146.632 173.643 189.109  0.00  0.00    +0.040 HD
ATOM     29  H   UNL     1     147.649 172.468 188.271  0.00  0.00    +0.040 HD
ATOM     30  H   UNL     1     145.335 171.704 190.129  0.00  0.00    +0.055 HD
ATOM     31  H   UNL     1     147.405 170.009 188.814  0.00  0.00    +0.149 HD
ATOM     32  H   UNL     1     146.686 168.021 188.196  0.00  0.00    +0.060 HD
ATOM     33  H   UNL     1     142.959 165.632 187.607  0.00  0.00    +0.059 HD
ATOM     34  H   UNL     1     142.378 168.055 185.937  0.00  0.00    +0.149 HD
ATOM     35  H   UNL     1     140.547 169.134 186.247  0.00  0.00    +0.039 HD
ATOM     36  H   UNL     1     138.604 169.742 187.829  0.00  0.00    +0.032 HD
ATOM     37  H   UNL     1     139.131 168.471 188.900  0.00  0.00    +0.032 HD
ATOM     38  H   UNL     1     139.778 171.749 187.643  0.00  0.00    +0.057 HD
ENDROOT
BRANCH   8  39
ATOM     39  C   UNL     1     147.268 171.801 191.027  0.00  0.00    -0.026 A 
ATOM     40  C   UNL     1     146.941 172.717 192.042  0.00  0.00    -0.053 A 
ATOM     41  C   UNL     1     147.794 172.906 193.133  0.00  0.00    -0.020 A 
ATOM     42  C   UNL     1     148.986 172.199 193.207  0.00  0.00    +0.117 A 
ATOM     43  C   UNL     1     149.339 171.293 192.213  0.00  0.00    -0.020 A 
ATOM     44  C   UNL     1     148.483 171.101 191.125  0.00  0.00    -0.053 A 
ATOM     45  H   UNL     1     146.031 173.309 191.992  0.00  0.00    +0.062 HD
ATOM     46  H   UNL     1     147.531 173.614 193.913  0.00  0.00    +0.065 HD
ATOM     47  H   UNL     1     150.275 170.745 192.252  0.00  0.00    +0.065 HD
ATOM     48  H   UNL     1     148.779 170.413 190.333  0.00  0.00    +0.062 HD
BRANCH  42  49
ATOM     49  O   UNL     1     149.803 172.439 194.273  0.00  0.00    -0.507 OA
ATOM     50  H   UNL     1     149.932 171.604 194.753  0.00  0.00    +0.292 HD
ENDBRANCH  42  49
ENDBRANCH   8  39
BRANCH   1  51
ATOM     51  C   UNL     1     140.670 173.495 189.707  0.00  0.00    -0.059 C 
ATOM     52  H   UNL     1     140.823 174.524 189.364  0.00  0.00    +0.024 HD
ATOM     53  H   UNL     1     140.991 173.446 190.755  0.00  0.00    +0.024 HD
ATOM     54  H   UNL     1     139.593 173.285 189.674  0.00  0.00    +0.024 HD
ENDBRANCH   1  51
BRANCH  22  55
ATOM     55  C   UNL     1     141.414 169.531 189.789  0.00  0.00    -0.044 C 
ATOM     56  H   UNL     1     140.914 168.710 190.316  0.00  0.00    +0.027 HD
ATOM     57  H   UNL     1     142.319 169.138 189.318  0.00  0.00    +0.027 HD
ATOM     58  H   UNL     1     141.712 170.250 190.556  0.00  0.00    +0.027 HD
ENDBRANCH  22  55
BRANCH  20  59
ATOM     59  C   UNL     1     138.915 167.759 186.122  0.00  0.00    -0.054 C 
ATOM     60  H   UNL     1     139.283 167.330 185.183  0.00  0.00    +0.024 HD
ATOM     61  H   UNL     1     138.450 166.957 186.705  0.00  0.00    +0.024 HD
ATOM     62  H   UNL     1     138.137 168.488 185.870  0.00  0.00    +0.024 HD
ENDBRANCH  20  59
BRANCH  16  63
ATOM     63  C   UNL     1     143.644 165.624 185.592  0.00  0.00    -0.038 C 
ATOM     64  H   UNL     1     143.292 164.588 185.631  0.00  0.00    +0.025 HD
ATOM     65  H   UNL     1     143.202 166.088 184.702  0.00  0.00    +0.025 HD
ATOM     66  H   UNL     1     144.730 165.612 185.455  0.00  0.00    +0.025 HD
ENDBRANCH  16  63
BRANCH  13  67
ATOM     67  C   UNL     1     144.075 166.430 189.703  0.00  0.00    +0.004 C 
ATOM     68  H   UNL     1     143.349 167.119 190.136  0.00  0.00    +0.043 HD
ATOM     69  H   UNL     1     144.701 166.060 190.520  0.00  0.00    +0.043 HD
ATOM     70  H   UNL     1     143.552 165.588 189.235  0.00  0.00    +0.043 HD
ENDBRANCH  13  67
BRANCH   3  71
ATOM     71  C   UNL     1     143.143 171.175 186.531  0.00  0.00    -0.028 C 
ATOM     72  H   UNL     1     142.093 170.882 186.636  0.00  0.00    +0.027 HD
ATOM     73  H   UNL     1     143.369 171.085 185.466  0.00  0.00    +0.027 HD
ATOM     74  H   UNL     1     143.743 170.462 187.100  0.00  0.00    +0.027 HD
ENDBRANCH   3  71
BRANCH  12  75
ATOM     75  C   UNL     1     147.001 166.997 190.049  0.00  0.00    +0.003 C 
ATOM     76  H   UNL     1     146.793 167.254 191.092  0.00  0.00    +0.034 HD
ATOM     77  H   UNL     1     146.738 165.934 189.955  0.00  0.00    +0.034 HD
BRANCH  75  78
ATOM     78  C   UNL     1     148.471 167.143 189.786  0.00  0.00    -0.006 A 
ATOM     79  C   UNL     1     149.120 167.033 188.574  0.00  0.00    +0.087 A 
ATOM     80  N   UNL     1     150.459 167.184 188.768  0.00  0.00    -0.349 N 
ATOM     81  C   UNL     1     150.720 167.414 190.098  0.00  0.00    +0.048 A 
ATOM     82  C   UNL     1     151.940 167.617 190.752  0.00  0.00    -0.038 A 
ATOM     83  C   UNL     1     151.905 167.827 192.134  0.00  0.00    -0.060 A 
ATOM     84  C   UNL     1     150.698 167.841 192.826  0.00  0.00    -0.061 A 
ATOM     85  C   UNL     1     149.486 167.637 192.155  0.00  0.00    -0.052 A 
ATOM     86  C   UNL     1     149.491 167.414 190.761  0.00  0.00    +0.004 A 
ATOM     87 BR   UNL     1     148.343 166.696 186.868  0.00  0.00    -0.031 Br
ATOM     88  H   UNL     1     151.156 167.103 188.040  0.00  0.00    +0.166 HD
ATOM     89  H   UNL     1     152.882 167.615 190.213  0.00  0.00    +0.064 HD
ATOM     90  H   UNL     1     152.835 167.990 192.672  0.00  0.00    +0.062 HD
ATOM     91  H   UNL     1     150.693 168.014 193.899  0.00  0.00    +0.062 HD
ATOM     92  H   UNL     1     148.556 167.658 192.713  0.00  0.00    +0.062 HD
ENDBRANCH  75  78
ENDBRANCH  12  75
TORSDOF 10
ENDMDL
MODEL 10
REMARK VINA RESULT:      -6.1      2.732      5.688
REMARK  Name = Jasplakinolide_conf1
REMARK  10 active torsions:
REMARK  status: ('A' for Active; 'I' for Inactive)
REMARK    1  A    between atoms: C_1  and  C_2
REMARK    2  A    between atoms: C_4  and  C_47
REMARK    3  A    between atoms: C_9  and  C_40
REMARK    4  A    between atoms: C_13  and  C_29
REMARK    5  A    between atoms: N_14  and  C_28
REMARK    6  A    between atoms: C_17  and  C_27
REMARK    7  A    between atoms: C_21  and  C_26
REMARK    8  A    between atoms: C_23  and  C_25
REMARK    9  A    between atoms: C_29  and  C_30
REMARK   10  A    between atoms: C_43  and  O_46
REMARK                            x       y       z     vdW  Elec       q    Type
REMARK                         _______ _______ _______ _____ _____    ______ ____
ROOT
ATOM      1  C   UNL     1     144.235 166.465 184.599  0.00  0.00    -0.022 C 
ATOM      2  C   UNL     1     145.732 166.100 184.452  0.00  0.00    -0.010 C 
ATOM      3  C   UNL     1     146.684 166.727 185.489  0.00  0.00    +0.101 C 
ATOM      4  O   UNL     1     146.657 168.156 185.298  0.00  0.00    -0.462 OA
ATOM      5  C   UNL     1     147.740 168.845 185.741  0.00  0.00    +0.309 C 
ATOM      6  O   UNL     1     148.740 168.344 186.241  0.00  0.00    -0.251 OA
ATOM      7  C   UNL     1     147.614 170.316 185.458  0.00  0.00    +0.067 C 
ATOM      8  C   UNL     1     146.299 170.914 185.971  0.00  0.00    +0.058 C 
ATOM      9  N   UNL     1     146.219 170.878 187.423  0.00  0.00    -0.306 N 
ATOM     10  C   UNL     1     145.046 170.588 188.093  0.00  0.00    +0.234 C 
ATOM     11  O   UNL     1     143.995 170.328 187.509  0.00  0.00    -0.274 OA
ATOM     12  C   UNL     1     145.165 170.634 189.637  0.00  0.00    +0.106 C 
ATOM     13  N   UNL     1     144.410 169.507 190.238  0.00  0.00    -0.291 N 
ATOM     14  C   UNL     1     145.101 168.336 190.526  0.00  0.00    +0.236 C 
ATOM     15  O   UNL     1     146.280 168.185 190.185  0.00  0.00    -0.274 OA
ATOM     16  C   UNL     1     144.361 167.189 191.254  0.00  0.00    +0.097 C 
ATOM     17  N   UNL     1     144.225 166.092 190.302  0.00  0.00    -0.304 N 
ATOM     18  C   UNL     1     143.008 165.682 189.814  0.00  0.00    +0.217 C 
ATOM     19  O   UNL     1     141.940 166.147 190.201  0.00  0.00    -0.275 OA
ATOM     20  C   UNL     1     143.097 164.562 188.786  0.00  0.00    +0.036 C 
ATOM     21  C   UNL     1     142.205 164.849 187.569  0.00  0.00    -0.021 C 
ATOM     22  C   UNL     1     142.784 165.915 186.651  0.00  0.00    -0.076 C 
ATOM     23  C   UNL     1     143.542 165.557 185.595  0.00  0.00    -0.082 C 
ATOM     24  H   UNL     1     144.162 167.516 184.898  0.00  0.00    +0.034 HD
ATOM     25  H   UNL     1     145.860 165.010 184.461  0.00  0.00    +0.031 HD
ATOM     26  H   UNL     1     146.071 166.443 183.465  0.00  0.00    +0.031 HD
ATOM     27  H   UNL     1     147.690 166.350 185.259  0.00  0.00    +0.073 HD
ATOM     28  H   UNL     1     147.717 170.452 184.376  0.00  0.00    +0.040 HD
ATOM     29  H   UNL     1     148.475 170.806 185.932  0.00  0.00    +0.040 HD
ATOM     30  H   UNL     1     145.471 170.317 185.568  0.00  0.00    +0.055 HD
ATOM     31  H   UNL     1     147.013 171.217 187.955  0.00  0.00    +0.149 HD
ATOM     32  H   UNL     1     146.224 170.475 189.873  0.00  0.00    +0.060 HD
ATOM     33  H   UNL     1     143.381 167.505 191.617  0.00  0.00    +0.059 HD
ATOM     34  H   UNL     1     145.080 165.747 189.879  0.00  0.00    +0.149 HD
ATOM     35  H   UNL     1     144.137 164.445 188.456  0.00  0.00    +0.039 HD
ATOM     36  H   UNL     1     142.078 163.922 186.994  0.00  0.00    +0.032 HD
ATOM     37  H   UNL     1     141.193 165.138 187.876  0.00  0.00    +0.032 HD
ATOM     38  H   UNL     1     143.705 164.492 185.424  0.00  0.00    +0.057 HD
ENDROOT
BRANCH   8  39
ATOM     39  C   UNL     1     146.106 172.352 185.502  0.00  0.00    -0.026 A 
ATOM     40  C   UNL     1     145.955 172.684 184.144  0.00  0.00    -0.053 A 
ATOM     41  C   UNL     1     145.809 174.015 183.748  0.00  0.00    -0.020 A 
ATOM     42  C   UNL     1     145.832 175.025 184.700  0.00  0.00    +0.117 A 
ATOM     43  C   UNL     1     145.989 174.728 186.049  0.00  0.00    -0.020 A 
ATOM     44  C   UNL     1     146.130 173.394 186.445  0.00  0.00    -0.053 A 
ATOM     45  H   UNL     1     145.969 171.916 183.375  0.00  0.00    +0.062 HD
ATOM     46  H   UNL     1     145.690 174.260 182.696  0.00  0.00    +0.065 HD
ATOM     47  H   UNL     1     146.023 175.509 186.801  0.00  0.00    +0.065 HD
ATOM     48  H   UNL     1     146.283 173.170 187.500  0.00  0.00    +0.062 HD
BRANCH  42  49
ATOM     49  O   UNL     1     145.718 176.313 184.264  0.00  0.00    -0.507 OA
ATOM     50  H   UNL     1     145.799 176.316 183.295  0.00  0.00    +0.292 HD
ENDBRANCH  42  49
ENDBRANCH   8  39
BRANCH   1  51
ATOM     51  C   UNL     1     143.525 166.319 183.248  0.00  0.00    -0.059 C 
ATOM     52  H   UNL     1     143.022 167.252 182.971  0.00  0.00    +0.024 HD
ATOM     53  H   UNL     1     142.763 165.532 183.285  0.00  0.00    +0.024 HD
ATOM     54  H   UNL     1     144.232 166.068 182.447  0.00  0.00    +0.024 HD
ENDBRANCH   1  51
BRANCH  22  55
ATOM     55  C   UNL     1     142.421 167.337 186.992  0.00  0.00    -0.044 C 
ATOM     56  H   UNL     1     141.408 167.386 187.408  0.00  0.00    +0.027 HD
ATOM     57  H   UNL     1     143.118 167.740 187.730  0.00  0.00    +0.027 HD
ATOM     58  H   UNL     1     142.425 167.998 186.121  0.00  0.00    +0.027 HD
ENDBRANCH  22  55
BRANCH  20  59
ATOM     59  C   UNL     1     142.675 163.263 189.474  0.00  0.00    -0.054 C 
ATOM     60  H   UNL     1     143.539 162.615 189.668  0.00  0.00    +0.024 HD
ATOM     61  H   UNL     1     142.183 163.470 190.430  0.00  0.00    +0.024 HD
ATOM     62  H   UNL     1     141.974 162.701 188.848  0.00  0.00    +0.024 HD
ENDBRANCH  20  59
BRANCH  16  63
ATOM     63  C   UNL     1     145.178 166.733 192.458  0.00  0.00    -0.038 C 
ATOM     64  H   UNL     1     144.643 165.960 193.019  0.00  0.00    +0.025 HD
ATOM     65  H   UNL     1     146.145 166.311 192.158  0.00  0.00    +0.025 HD
ATOM     66  H   UNL     1     145.377 167.571 193.133  0.00  0.00    +0.025 HD
ENDBRANCH  16  63
BRANCH  13  67
ATOM     67  C   UNL     1     142.958 169.618 190.340  0.00  0.00    +0.004 C 
ATOM     68  H   UNL     1     142.627 170.636 190.129  0.00  0.00    +0.043 HD
ATOM     69  H   UNL     1     142.612 169.365 191.346  0.00  0.00    +0.043 HD
ATOM     70  H   UNL     1     142.511 168.927 189.616  0.00  0.00    +0.043 HD
ENDBRANCH  13  67
BRANCH   3  71
ATOM     71  C   UNL     1     146.347 166.394 186.938  0.00  0.00    -0.028 C 
ATOM     72  H   UNL     1     146.261 167.310 187.532  0.00  0.00    +0.027 HD
ATOM     73  H   UNL     1     145.377 165.898 187.020  0.00  0.00    +0.027 HD
ATOM     74  H   UNL     1     147.121 165.775 187.397  0.00  0.00    +0.027 HD
ENDBRANCH   3  71
BRANCH  12  75
ATOM     75  C   UNL     1     144.769 172.007 190.214  0.00  0.00    +0.003 C 
ATOM     76  H   UNL     1     144.730 172.759 189.420  0.00  0.00    +0.034 HD
ATOM     77  H   UNL     1     143.743 171.945 190.604  0.00  0.00    +0.034 HD
BRANCH  75  78
ATOM     78  C   UNL     1     145.663 172.495 191.315  0.00  0.00    -0.006 A 
ATOM     79  C   UNL     1     145.376 173.454 192.264  0.00  0.00    +0.087 A 
ATOM     80  N   UNL     1     146.470 173.645 193.053  0.00  0.00    -0.349 N 
ATOM     81  C   UNL     1     147.488 172.809 192.657  0.00  0.00    +0.048 A 
ATOM     82  C   UNL     1     148.783 172.668 193.167  0.00  0.00    -0.038 A 
ATOM     83  C   UNL     1     149.618 171.727 192.557  0.00  0.00    -0.060 A 
ATOM     84  C   UNL     1     149.170 170.958 191.487  0.00  0.00    -0.061 A 
ATOM     85  C   UNL     1     147.870 171.113 190.991  0.00  0.00    -0.052 A 
ATOM     86  C   UNL     1     147.007 172.061 191.581  0.00  0.00    +0.004 A 
ATOM     87 BR   UNL     1     143.751 174.421 192.483  0.00  0.00    -0.031 Br
ATOM     88  H   UNL     1     146.529 174.327 193.797  0.00  0.00    +0.166 HD
ATOM     89  H   UNL     1     149.132 173.260 194.007  0.00  0.00    +0.064 HD
ATOM     90  H   UNL     1     150.630 171.591 192.931  0.00  0.00    +0.062 HD
ATOM     91  H   UNL     1     149.834 170.227 191.033  0.00  0.00    +0.062 HD
ATOM     92  H   UNL     1     147.539 170.499 190.159  0.00  0.00    +0.062 HD
ENDBRANCH  75  78
ENDBRANCH  12  75
TORSDOF 10
ENDMDL
