MODEL 1
REMARK VINA RESULT:      -7.2      0.000      0.000
REMARK  Name = Jasplakinolide_conf3
REMARK  10 active torsions:
REMARK  status: ('A' for Active; 'I' for Inactive)
REMARK    1  A    between atoms: C_1  and  C_2
REMARK    2  A    between atoms: C_4  and  C_47
REMARK    3  A    between atoms: C_9  and  C_40
REMARK    4  A    between atoms: C_13  and  C_29
REMARK    5  A    between atoms: N_14  and  C_28
REMARK    6  A    between atoms: C_17  and  C_27
REMARK    7  A    between atoms: C_21  and  C_26
REMARK    8  A    between atoms: C_23  and  C_25
REMARK    9  A    between atoms: C_29  and  C_30
REMARK   10  A    between atoms: C_43  and  O_46
REMARK                            x       y       z     vdW  Elec       q    Type
REMARK                         _______ _______ _______ _____ _____    ______ ____
ROOT
ATOM      1  C   UNL     1     151.157 167.185 190.778  0.00  0.00    -0.022 C 
ATOM      2  C   UNL     1     152.078 167.679 189.638  0.00  0.00    -0.010 C 
ATOM      3  C   UNL     1     152.343 166.596 188.579  0.00  0.00    +0.101 C 
ATOM      4  O   UNL     1     151.262 166.652 187.621  0.00  0.00    -0.462 OA
ATOM      5  C   UNL     1     151.023 165.517 186.903  0.00  0.00    +0.309 C 
ATOM      6  O   UNL     1     151.576 164.442 187.076  0.00  0.00    -0.251 OA
ATOM      7  C   UNL     1     150.079 165.816 185.767  0.00  0.00    +0.067 C 
ATOM      8  C   UNL     1     148.940 164.795 185.679  0.00  0.00    +0.058 C 
ATOM      9  N   UNL     1     147.806 165.217 186.487  0.00  0.00    -0.306 N 
ATOM     10  C   UNL     1     147.392 164.569 187.632  0.00  0.00    +0.234 C 
ATOM     11  O   UNL     1     147.890 163.509 188.006  0.00  0.00    -0.274 OA
ATOM     12  C   UNL     1     146.122 165.189 188.271  0.00  0.00    +0.106 C 
ATOM     13  N   UNL     1     146.015 166.657 188.027  0.00  0.00    -0.291 N 
ATOM     14  C   UNL     1     147.007 167.475 188.560  0.00  0.00    +0.236 C 
ATOM     15  O   UNL     1     148.044 166.983 189.017  0.00  0.00    -0.274 OA
ATOM     16  C   UNL     1     146.853 169.009 188.502  0.00  0.00    +0.097 C 
ATOM     17  N   UNL     1     147.728 169.574 189.529  0.00  0.00    -0.304 N 
ATOM     18  C   UNL     1     147.271 170.275 190.618  0.00  0.00    +0.217 C 
ATOM     19  O   UNL     1     146.082 170.514 190.805  0.00  0.00    -0.275 OA
ATOM     20  C   UNL     1     148.380 170.738 191.565  0.00  0.00    +0.036 C 
ATOM     21  C   UNL     1     148.711 169.666 192.622  0.00  0.00    -0.021 C 
ATOM     22  C   UNL     1     149.295 168.381 192.065  0.00  0.00    -0.076 C 
ATOM     23  C   UNL     1     150.507 168.366 191.472  0.00  0.00    -0.082 C 
ATOM     24  H   UNL     1     150.380 166.553 190.333  0.00  0.00    +0.034 HD
ATOM     25  H   UNL     1     153.024 168.023 190.076  0.00  0.00    +0.031 HD
ATOM     26  H   UNL     1     151.619 168.547 189.145  0.00  0.00    +0.031 HD
ATOM     27  H   UNL     1     152.401 165.605 189.042  0.00  0.00    +0.073 HD
ATOM     28  H   UNL     1     149.685 166.835 185.871  0.00  0.00    +0.040 HD
ATOM     29  H   UNL     1     150.702 165.806 184.863  0.00  0.00    +0.040 HD
ATOM     30  H   UNL     1     149.294 163.824 186.046  0.00  0.00    +0.055 HD
ATOM     31  H   UNL     1     147.286 166.039 186.210  0.00  0.00    +0.149 HD
ATOM     32  H   UNL     1     145.304 164.724 187.702  0.00  0.00    +0.060 HD
ATOM     33  H   UNL     1     145.820 169.289 188.721  0.00  0.00    +0.059 HD
ATOM     34  H   UNL     1     148.677 169.212 189.554  0.00  0.00    +0.149 HD
ATOM     35  H   UNL     1     149.272 170.961 190.965  0.00  0.00    +0.039 HD
ATOM     36  H   UNL     1     147.805 169.436 193.199  0.00  0.00    +0.032 HD
ATOM     37  H   UNL     1     149.426 170.077 193.348  0.00  0.00    +0.032 HD
ATOM     38  H   UNL     1     151.083 169.292 191.455  0.00  0.00    +0.057 HD
ENDROOT
BRANCH   8  39
ATOM     39  C   UNL     1     148.441 164.618 184.251  0.00  0.00    -0.026 A 
ATOM     40  C   UNL     1     147.226 163.973 183.960  0.00  0.00    -0.053 A 
ATOM     41  C   UNL     1     146.810 163.803 182.638  0.00  0.00    -0.020 A 
ATOM     42  C   UNL     1     147.607 164.267 181.600  0.00  0.00    +0.117 A 
ATOM     43  C   UNL     1     148.819 164.896 181.860  0.00  0.00    -0.020 A 
ATOM     44  C   UNL     1     149.236 165.066 183.183  0.00  0.00    -0.053 A 
ATOM     45  H   UNL     1     146.590 163.595 184.757  0.00  0.00    +0.062 HD
ATOM     46  H   UNL     1     145.867 163.310 182.418  0.00  0.00    +0.065 HD
ATOM     47  H   UNL     1     149.453 165.257 181.055  0.00  0.00    +0.065 HD
ATOM     48  H   UNL     1     150.193 165.550 183.378  0.00  0.00    +0.062 HD
BRANCH  42  49
ATOM     49  O   UNL     1     147.162 164.081 180.325  0.00  0.00    -0.507 OA
ATOM     50  H   UNL     1     146.240 164.383 180.273  0.00  0.00    +0.292 HD
ENDBRANCH  42  49
ENDBRANCH   8  39
BRANCH   1  51
ATOM     51  C   UNL     1     151.947 166.356 191.797  0.00  0.00    -0.059 C 
ATOM     52  H   UNL     1     151.972 165.298 191.510  0.00  0.00    +0.024 HD
ATOM     53  H   UNL     1     151.501 166.418 192.796  0.00  0.00    +0.024 HD
ATOM     54  H   UNL     1     152.983 166.698 191.870  0.00  0.00    +0.024 HD
ENDBRANCH   1  51
BRANCH  22  55
ATOM     55  C   UNL     1     148.423 167.166 192.248  0.00  0.00    -0.044 C 
ATOM     56  H   UNL     1     147.353 167.383 192.206  0.00  0.00    +0.027 HD
ATOM     57  H   UNL     1     148.635 166.435 191.461  0.00  0.00    +0.027 HD
ATOM     58  H   UNL     1     148.630 166.700 193.213  0.00  0.00    +0.027 HD
ENDBRANCH  22  55
BRANCH  20  59
ATOM     59  C   UNL     1     147.957 172.036 192.255  0.00  0.00    -0.054 C 
ATOM     60  H   UNL     1     148.753 172.428 192.898  0.00  0.00    +0.024 HD
ATOM     61  H   UNL     1     147.075 171.871 192.884  0.00  0.00    +0.024 HD
ATOM     62  H   UNL     1     147.706 172.805 191.517  0.00  0.00    +0.024 HD
ENDBRANCH  20  59
BRANCH  16  63
ATOM     63  C   UNL     1     147.282 169.522 187.132  0.00  0.00    -0.038 C 
ATOM     64  H   UNL     1     147.886 168.787 186.592  0.00  0.00    +0.025 HD
ATOM     65  H   UNL     1     146.408 169.763 186.519  0.00  0.00    +0.025 HD
ATOM     66  H   UNL     1     147.885 170.433 187.223  0.00  0.00    +0.025 HD
ENDBRANCH  16  63
BRANCH  13  67
ATOM     67  C   UNL     1     144.776 167.125 187.417  0.00  0.00    +0.004 C 
ATOM     68  H   UNL     1     144.780 167.044 186.332  0.00  0.00    +0.043 HD
ATOM     69  H   UNL     1     143.951 166.519 187.804  0.00  0.00    +0.043 HD
ATOM     70  H   UNL     1     144.611 168.170 187.689  0.00  0.00    +0.043 HD
ENDBRANCH  13  67
BRANCH   3  71
ATOM     71  C   UNL     1     153.645 166.892 187.834  0.00  0.00    -0.028 C 
ATOM     72  H   UNL     1     153.473 166.956 186.755  0.00  0.00    +0.027 HD
ATOM     73  H   UNL     1     154.392 166.114 188.017  0.00  0.00    +0.027 HD
ATOM     74  H   UNL     1     154.060 167.858 188.143  0.00  0.00    +0.027 HD
ENDBRANCH   3  71
BRANCH  12  75
ATOM     75  C   UNL     1     145.973 164.790 189.755  0.00  0.00    +0.003 C 
ATOM     76  H   UNL     1     146.634 165.388 190.392  0.00  0.00    +0.034 HD
ATOM     77  H   UNL     1     146.296 163.754 189.909  0.00  0.00    +0.034 HD
BRANCH  75  78
ATOM     78  C   UNL     1     144.558 164.918 190.254  0.00  0.00    -0.006 A 
ATOM     79  C   UNL     1     143.410 164.475 189.631  0.00  0.00    +0.087 A 
ATOM     80  N   UNL     1     142.332 164.773 190.410  0.00  0.00    -0.349 N 
ATOM     81  C   UNL     1     142.737 165.441 191.540  0.00  0.00    +0.048 A 
ATOM     82  C   UNL     1     141.983 165.958 192.601  0.00  0.00    -0.038 A 
ATOM     83  C   UNL     1     142.672 166.605 193.630  0.00  0.00    -0.060 A 
ATOM     84  C   UNL     1     144.057 166.724 193.600  0.00  0.00    -0.061 A 
ATOM     85  C   UNL     1     144.794 166.193 192.535  0.00  0.00    -0.052 A 
ATOM     86  C   UNL     1     144.129 165.539 191.477  0.00  0.00    +0.004 A 
ATOM     87 BR   UNL     1     143.278 163.586 187.954  0.00  0.00    -0.031 Br
ATOM     88  H   UNL     1     141.375 164.546 190.182  0.00  0.00    +0.166 HD
ATOM     89  H   UNL     1     140.903 165.866 192.629  0.00  0.00    +0.064 HD
ATOM     90  H   UNL     1     142.117 167.022 194.469  0.00  0.00    +0.062 HD
ATOM     91  H   UNL     1     144.581 167.235 194.406  0.00  0.00    +0.062 HD
ATOM     92  H   UNL     1     145.873 166.300 192.534  0.00  0.00    +0.062 HD
ENDBRANCH  75  78
ENDBRANCH  12  75
TORSDOF 10
ENDMDL
MODEL 2
REMARK VINA RESULT:      -7.0      5.412      9.046
REMARK  Name = Jasplakinolide_conf3
REMARK  10 active torsions:
REMARK  status: ('A' for Active; 'I' for Inactive)
REMARK    1  A    between atoms: C_1  and  C_2
REMARK    2  A    between atoms: C_4  and  C_47
REMARK    3  A    between atoms: C_9  and  C_40
REMARK    4  A    between atoms: C_13  and  C_29
REMARK    5  A    between atoms: N_14  and  C_28
REMARK    6  A    between atoms: C_17  and  C_27
REMARK    7  A    between atoms: C_21  and  C_26
REMARK    8  A    between atoms: C_23  and  C_25
REMARK    9  A    between atoms: C_29  and  C_30
REMARK   10  A    between atoms: C_43  and  O_46
REMARK                            x       y       z     vdW  Elec       q    Type
REMARK                         _______ _______ _______ _____ _____    ______ ____
ROOT
ATOM      1  C   UNL     1     141.549 175.004 189.908  0.00  0.00    -0.022 C 
ATOM      2  C   UNL     1     141.067 175.650 188.588  0.00  0.00    -0.010 C 
ATOM      3  C   UNL     1     142.229 176.171 187.725  0.00  0.00    +0.101 C 
ATOM      4  O   UNL     1     142.700 175.067 186.919  0.00  0.00    -0.462 OA
ATOM      5  C   UNL     1     143.982 175.148 186.463  0.00  0.00    +0.309 C 
ATOM      6  O   UNL     1     144.785 176.018 186.762  0.00  0.00    -0.251 OA
ATOM      7  C   UNL     1     144.225 174.087 185.420  0.00  0.00    +0.067 C 
ATOM      8  C   UNL     1     145.527 173.320 185.671  0.00  0.00    +0.058 C 
ATOM      9  N   UNL     1     145.290 172.164 186.523  0.00  0.00    -0.306 N 
ATOM     10  C   UNL     1     145.766 172.048 187.812  0.00  0.00    +0.234 C 
ATOM     11  O   UNL     1     146.527 172.873 188.311  0.00  0.00    -0.274 OA
ATOM     12  C   UNL     1     145.420 170.691 188.480  0.00  0.00    +0.106 C 
ATOM     13  N   UNL     1     144.136 170.117 187.982  0.00  0.00    -0.291 N 
ATOM     14  C   UNL     1     142.970 170.836 188.222  0.00  0.00    +0.236 C 
ATOM     15  O   UNL     1     143.027 172.003 188.626  0.00  0.00    -0.274 OA
ATOM     16  C   UNL     1     141.598 170.209 187.897  0.00  0.00    +0.097 C 
ATOM     17  N   UNL     1     140.594 170.928 188.681  0.00  0.00    -0.304 N 
ATOM     18  C   UNL     1     139.838 170.347 189.669  0.00  0.00    +0.217 C 
ATOM     19  O   UNL     1     139.921 169.157 189.957  0.00  0.00    -0.275 OA
ATOM     20  C   UNL     1     138.878 171.315 190.363  0.00  0.00    +0.036 C 
ATOM     21  C   UNL     1     139.550 172.029 191.552  0.00  0.00    -0.021 C 
ATOM     22  C   UNL     1     140.698 172.948 191.175  0.00  0.00    -0.076 C 
ATOM     23  C   UNL     1     140.487 174.064 190.446  0.00  0.00    -0.082 C 
ATOM     24  H   UNL     1     142.461 174.436 189.691  0.00  0.00    +0.034 HD
ATOM     25  H   UNL     1     140.376 176.468 188.830  0.00  0.00    +0.031 HD
ATOM     26  H   UNL     1     140.500 174.913 188.004  0.00  0.00    +0.031 HD
ATOM     27  H   UNL     1     143.035 176.564 188.354  0.00  0.00    +0.073 HD
ATOM     28  H   UNL     1     143.369 173.403 185.381  0.00  0.00    +0.040 HD
ATOM     29  H   UNL     1     144.250 174.623 184.462  0.00  0.00    +0.040 HD
ATOM     30  H   UNL     1     146.250 173.981 186.164  0.00  0.00    +0.055 HD
ATOM     31  H   UNL     1     144.736 171.398 186.165  0.00  0.00    +0.149 HD
ATOM     32  H   UNL     1     146.215 170.024 188.117  0.00  0.00    +0.060 HD
ATOM     33  H   UNL     1     141.590 169.157 188.190  0.00  0.00    +0.059 HD
ATOM     34  H   UNL     1     140.649 171.943 188.652  0.00  0.00    +0.149 HD
ATOM     35  H   UNL     1     138.540 172.052 189.624  0.00  0.00    +0.039 HD
ATOM     36  H   UNL     1     139.903 171.279 192.271  0.00  0.00    +0.032 HD
ATOM     37  H   UNL     1     138.802 172.626 192.091  0.00  0.00    +0.032 HD
ATOM     38  H   UNL     1     139.460 174.320 190.183  0.00  0.00    +0.057 HD
ENDROOT
BRANCH   8  39
ATOM     39  C   UNL     1     146.148 172.810 184.376  0.00  0.00    -0.026 A 
ATOM     40  C   UNL     1     146.432 171.449 184.170  0.00  0.00    -0.053 A 
ATOM     41  C   UNL     1     147.026 171.018 182.982  0.00  0.00    -0.020 A 
ATOM     42  C   UNL     1     147.348 171.944 181.997  0.00  0.00    +0.117 A 
ATOM     43  C   UNL     1     147.090 173.297 182.181  0.00  0.00    -0.020 A 
ATOM     44  C   UNL     1     146.496 173.728 183.370  0.00  0.00    -0.053 A 
ATOM     45  H   UNL     1     146.196 170.708 184.931  0.00  0.00    +0.062 HD
ATOM     46  H   UNL     1     147.238 169.965 182.824  0.00  0.00    +0.065 HD
ATOM     47  H   UNL     1     147.343 174.030 181.421  0.00  0.00    +0.065 HD
ATOM     48  H   UNL     1     146.307 174.792 183.513  0.00  0.00    +0.062 HD
BRANCH  42  49
ATOM     49  O   UNL     1     147.925 171.479 180.854  0.00  0.00    -0.507 OA
ATOM     50  H   UNL     1     147.688 170.543 180.746  0.00  0.00    +0.292 HD
ENDBRANCH  42  49
ENDBRANCH   8  39
BRANCH   1  51
ATOM     51  C   UNL     1     141.870 176.076 190.955  0.00  0.00    -0.059 C 
ATOM     52  H   UNL     1     142.951 176.153 191.122  0.00  0.00    +0.024 HD
ATOM     53  H   UNL     1     141.400 175.849 191.919  0.00  0.00    +0.024 HD
ATOM     54  H   UNL     1     141.519 177.062 190.635  0.00  0.00    +0.024 HD
ENDBRANCH   1  51
BRANCH  22  55
ATOM     55  C   UNL     1     142.044 172.512 191.691  0.00  0.00    -0.044 C 
ATOM     56  H   UNL     1     142.130 171.433 191.838  0.00  0.00    +0.027 HD
ATOM     57  H   UNL     1     142.826 172.804 190.983  0.00  0.00    +0.027 HD
ATOM     58  H   UNL     1     142.252 172.994 192.648  0.00  0.00    +0.027 HD
ENDBRANCH  22  55
BRANCH  20  59
ATOM     59  C   UNL     1     137.641 170.553 190.847  0.00  0.00    -0.054 C 
ATOM     60  H   UNL     1     137.728 170.275 191.903  0.00  0.00    +0.024 HD
ATOM     61  H   UNL     1     137.505 169.630 190.272  0.00  0.00    +0.024 HD
ATOM     62  H   UNL     1     136.739 171.161 190.728  0.00  0.00    +0.024 HD
ENDBRANCH  20  59
BRANCH  16  63
ATOM     63  C   UNL     1     141.292 170.368 186.413  0.00  0.00    -0.038 C 
ATOM     64  H   UNL     1     140.236 170.589 186.235  0.00  0.00    +0.025 HD
ATOM     65  H   UNL     1     141.888 171.179 185.980  0.00  0.00    +0.025 HD
ATOM     66  H   UNL     1     141.529 169.452 185.860  0.00  0.00    +0.025 HD
ENDBRANCH  16  63
BRANCH  13  67
ATOM     67  C   UNL     1     144.194 168.757 187.458  0.00  0.00    +0.004 C 
ATOM     68  H   UNL     1     144.008 168.001 188.218  0.00  0.00    +0.043 HD
ATOM     69  H   UNL     1     143.433 168.655 186.678  0.00  0.00    +0.043 HD
ATOM     70  H   UNL     1     145.180 168.580 187.023  0.00  0.00    +0.043 HD
ENDBRANCH  13  67
BRANCH   3  71
ATOM     71  C   UNL     1     141.735 177.265 186.779  0.00  0.00    -0.028 C 
ATOM     72  H   UNL     1     141.591 176.872 185.768  0.00  0.00    +0.027 HD
ATOM     73  H   UNL     1     142.447 178.094 186.726  0.00  0.00    +0.027 HD
ATOM     74  H   UNL     1     140.764 177.654 187.105  0.00  0.00    +0.027 HD
ENDBRANCH   3  71
BRANCH  12  75
ATOM     75  C   UNL     1     145.513 170.769 190.019  0.00  0.00    +0.003 C 
ATOM     76  H   UNL     1     144.852 170.034 190.491  0.00  0.00    +0.034 HD
ATOM     77  H   UNL     1     145.155 171.742 190.377  0.00  0.00    +0.034 HD
BRANCH  75  78
ATOM     78  C   UNL     1     146.916 170.571 190.530  0.00  0.00    -0.006 A 
ATOM     79  C   UNL     1     147.792 169.560 190.192  0.00  0.00    +0.087 A 
ATOM     80  N   UNL     1     148.965 169.740 190.862  0.00  0.00    -0.349 N 
ATOM     81  C   UNL     1     148.881 170.845 191.672  0.00  0.00    +0.048 A 
ATOM     82  C   UNL     1     149.824 171.394 192.550  0.00  0.00    -0.038 A 
ATOM     83  C   UNL     1     149.458 172.539 193.263  0.00  0.00    -0.060 A 
ATOM     84  C   UNL     1     148.201 173.112 193.099  0.00  0.00    -0.061 A 
ATOM     85  C   UNL     1     147.275 172.554 192.210  0.00  0.00    -0.052 A 
ATOM     86  C   UNL     1     147.611 171.395 191.480  0.00  0.00    +0.004 A 
ATOM     87 BR   UNL     1     147.478 168.115 188.995  0.00  0.00    -0.031 Br
ATOM     88  H   UNL     1     149.773 169.140 190.781  0.00  0.00    +0.166 HD
ATOM     89  H   UNL     1     150.806 170.951 192.681  0.00  0.00    +0.064 HD
ATOM     90  H   UNL     1     150.165 172.990 193.957  0.00  0.00    +0.062 HD
ATOM     91  H   UNL     1     147.926 174.001 193.664  0.00  0.00    +0.062 HD
ATOM     92  H   UNL     1     146.301 173.019 192.101  0.00  0.00    +0.062 HD
ENDBRANCH  75  78
ENDBRANCH  12  75
TORSDOF 10
ENDMDL
MODEL 3
REMARK VINA RESULT:      -6.9      3.473      6.519
REMARK  Name = Jasplakinolide_conf3
REMARK  10 active torsions:
REMARK  status: ('A' for Active; 'I' for Inactive)
REMARK    1  A    between atoms: C_1  and  C_2
REMARK    2  A    between atoms: C_4  and  C_47
REMARK    3  A    between atoms: C_9  and  C_40
REMARK    4  A    between atoms: C_13  and  C_29
REMARK    5  A    between atoms: N_14  and  C_28
REMARK    6  A    between atoms: C_17  and  C_27
REMARK    7  A    between atoms: C_21  and  C_26
REMARK    8  A    between atoms: C_23  and  C_25
REMARK    9  A    between atoms: C_29  and  C_30
REMARK   10  A    between atoms: C_43  and  O_46
REMARK                            x       y       z     vdW  Elec       q    Type
REMARK                         _______ _______ _______ _____ _____    ______ ____
ROOT
ATOM      1  C   UNL     1     145.897 169.415 186.328  0.00  0.00    -0.022 C 
ATOM      2  C   UNL     1     144.811 168.781 185.428  0.00  0.00    -0.010 C 
ATOM      3  C   UNL     1     145.092 167.301 185.115  0.00  0.00    +0.101 C 
ATOM      4  O   UNL     1     144.540 166.516 186.196  0.00  0.00    -0.462 OA
ATOM      5  C   UNL     1     145.074 165.277 186.386  0.00  0.00    +0.309 C 
ATOM      6  O   UNL     1     146.038 164.823 185.787  0.00  0.00    -0.251 OA
ATOM      7  C   UNL     1     144.217 164.487 187.340  0.00  0.00    +0.067 C 
ATOM      8  C   UNL     1     145.047 163.807 188.434  0.00  0.00    +0.058 C 
ATOM      9  N   UNL     1     145.198 164.682 189.587  0.00  0.00    -0.306 N 
ATOM     10  C   UNL     1     146.396 165.246 189.972  0.00  0.00    +0.234 C 
ATOM     11  O   UNL     1     147.462 164.966 189.430  0.00  0.00    -0.274 OA
ATOM     12  C   UNL     1     146.293 166.092 191.269  0.00  0.00    +0.106 C 
ATOM     13  N   UNL     1     144.951 166.721 191.439  0.00  0.00    -0.291 N 
ATOM     14  C   UNL     1     144.546 167.649 190.485  0.00  0.00    +0.236 C 
ATOM     15  O   UNL     1     145.173 167.772 189.427  0.00  0.00    -0.274 OA
ATOM     16  C   UNL     1     143.257 168.466 190.705  0.00  0.00    +0.097 C 
ATOM     17  N   UNL     1     143.344 169.655 189.856  0.00  0.00    -0.304 N 
ATOM     18  C   UNL     1     143.402 170.937 190.343  0.00  0.00    +0.217 C 
ATOM     19  O   UNL     1     143.353 171.197 191.542  0.00  0.00    -0.275 OA
ATOM     20  C   UNL     1     143.519 172.007 189.257  0.00  0.00    +0.036 C 
ATOM     21  C   UNL     1     144.989 172.279 188.881  0.00  0.00    -0.021 C 
ATOM     22  C   UNL     1     145.710 171.106 188.241  0.00  0.00    -0.076 C 
ATOM     23  C   UNL     1     145.343 170.641 187.029  0.00  0.00    -0.082 C 
ATOM     24  H   UNL     1     146.192 168.670 187.076  0.00  0.00    +0.034 HD
ATOM     25  H   UNL     1     144.744 169.360 184.498  0.00  0.00    +0.031 HD
ATOM     26  H   UNL     1     143.834 168.855 185.924  0.00  0.00    +0.031 HD
ATOM     27  H   UNL     1     146.168 167.122 185.014  0.00  0.00    +0.073 HD
ATOM     28  H   UNL     1     143.451 165.140 187.779  0.00  0.00    +0.040 HD
ATOM     29  H   UNL     1     143.690 163.752 186.717  0.00  0.00    +0.040 HD
ATOM     30  H   UNL     1     146.041 163.566 188.039  0.00  0.00    +0.055 HD
ATOM     31  H   UNL     1     144.383 164.906 190.141  0.00  0.00    +0.149 HD
ATOM     32  H   UNL     1     146.382 165.339 192.066  0.00  0.00    +0.060 HD
ATOM     33  H   UNL     1     143.187 168.780 191.749  0.00  0.00    +0.059 HD
ATOM     34  H   UNL     1     143.622 169.494 188.892  0.00  0.00    +0.149 HD
ATOM     35  H   UNL     1     142.964 171.663 188.374  0.00  0.00    +0.039 HD
ATOM     36  H   UNL     1     145.538 172.600 189.777  0.00  0.00    +0.032 HD
ATOM     37  H   UNL     1     145.039 173.127 188.185  0.00  0.00    +0.032 HD
ATOM     38  H   UNL     1     144.551 171.166 186.494  0.00  0.00    +0.057 HD
ENDROOT
BRANCH   8  39
ATOM     39  C   UNL     1     144.399 162.517 188.924  0.00  0.00    -0.026 A 
ATOM     40  C   UNL     1     145.111 161.307 189.001  0.00  0.00    -0.053 A 
ATOM     41  C   UNL     1     144.481 160.137 189.429  0.00  0.00    -0.020 A 
ATOM     42  C   UNL     1     143.136 160.166 189.774  0.00  0.00    +0.117 A 
ATOM     43  C   UNL     1     142.405 161.346 189.693  0.00  0.00    -0.020 A 
ATOM     44  C   UNL     1     143.036 162.517 189.265  0.00  0.00    -0.053 A 
ATOM     45  H   UNL     1     146.163 161.261 188.728  0.00  0.00    +0.062 HD
ATOM     46  H   UNL     1     145.037 159.206 189.494  0.00  0.00    +0.065 HD
ATOM     47  H   UNL     1     141.352 161.378 189.954  0.00  0.00    +0.065 HD
ATOM     48  H   UNL     1     142.454 163.435 189.193  0.00  0.00    +0.062 HD
BRANCH  42  49
ATOM     49  O   UNL     1     142.562 159.001 190.187  0.00  0.00    -0.507 OA
ATOM     50  H   UNL     1     142.892 158.792 191.076  0.00  0.00    +0.292 HD
ENDBRANCH  42  49
ENDBRANCH   8  39
BRANCH   1  51
ATOM     51  C   UNL     1     147.130 169.804 185.503  0.00  0.00    -0.059 C 
ATOM     52  H   UNL     1     147.729 170.561 186.023  0.00  0.00    +0.024 HD
ATOM     53  H   UNL     1     146.846 170.216 184.529  0.00  0.00    +0.024 HD
ATOM     54  H   UNL     1     147.778 168.941 185.327  0.00  0.00    +0.024 HD
ENDBRANCH   1  51
BRANCH  22  55
ATOM     55  C   UNL     1     146.843 170.546 189.059  0.00  0.00    -0.044 C 
ATOM     56  H   UNL     1     146.813 169.459 189.167  0.00  0.00    +0.027 HD
ATOM     57  H   UNL     1     147.800 170.796 188.590  0.00  0.00    +0.027 HD
ATOM     58  H   UNL     1     146.831 170.979 190.061  0.00  0.00    +0.027 HD
ENDBRANCH  22  55
BRANCH  20  59
ATOM     59  C   UNL     1     142.858 173.301 189.736  0.00  0.00    -0.054 C 
ATOM     60  H   UNL     1     142.238 173.131 190.623  0.00  0.00    +0.024 HD
ATOM     61  H   UNL     1     142.213 173.720 188.956  0.00  0.00    +0.024 HD
ATOM     62  H   UNL     1     143.613 174.053 189.989  0.00  0.00    +0.024 HD
ENDBRANCH  20  59
BRANCH  16  63
ATOM     63  C   UNL     1     142.042 167.641 190.297  0.00  0.00    -0.038 C 
ATOM     64  H   UNL     1     141.420 168.163 189.564  0.00  0.00    +0.025 HD
ATOM     65  H   UNL     1     142.353 166.685 189.862  0.00  0.00    +0.025 HD
ATOM     66  H   UNL     1     141.407 167.420 191.162  0.00  0.00    +0.025 HD
ENDBRANCH  16  63
BRANCH  13  67
ATOM     67  C   UNL     1     144.264 166.452 192.697  0.00  0.00    +0.004 C 
ATOM     68  H   UNL     1     144.141 165.390 192.895  0.00  0.00    +0.043 HD
ATOM     69  H   UNL     1     144.850 166.888 193.511  0.00  0.00    +0.043 HD
ATOM     70  H   UNL     1     143.277 166.920 192.676  0.00  0.00    +0.043 HD
ENDBRANCH  13  67
BRANCH   3  71
ATOM     71  C   UNL     1     144.379 166.889 183.827  0.00  0.00    -0.028 C 
ATOM     72  H   UNL     1     143.454 167.459 183.692  0.00  0.00    +0.027 HD
ATOM     73  H   UNL     1     144.128 165.825 183.836  0.00  0.00    +0.027 HD
ATOM     74  H   UNL     1     145.005 167.096 182.951  0.00  0.00    +0.027 HD
ENDBRANCH   3  71
BRANCH  12  75
ATOM     75  C   UNL     1     147.469 167.083 191.402  0.00  0.00    +0.003 C 
ATOM     76  H   UNL     1     147.122 168.060 191.755  0.00  0.00    +0.034 HD
ATOM     77  H   UNL     1     147.917 167.281 190.421  0.00  0.00    +0.034 HD
BRANCH  75  78
ATOM     78  C   UNL     1     148.553 166.583 192.320  0.00  0.00    -0.006 A 
ATOM     79  C   UNL     1     149.838 166.220 191.973  0.00  0.00    +0.087 A 
ATOM     80  N   UNL     1     150.512 165.831 193.092  0.00  0.00    -0.349 N 
ATOM     81  C   UNL     1     149.687 165.900 194.188  0.00  0.00    +0.048 A 
ATOM     82  C   UNL     1     149.938 165.580 195.528  0.00  0.00    -0.038 A 
ATOM     83  C   UNL     1     148.894 165.744 196.441  0.00  0.00    -0.060 A 
ATOM     84  C   UNL     1     147.652 166.215 196.029  0.00  0.00    -0.061 A 
ATOM     85  C   UNL     1     147.422 166.538 194.687  0.00  0.00    -0.052 A 
ATOM     86  C   UNL     1     148.454 166.378 193.739  0.00  0.00    +0.004 A 
ATOM     87 BR   UNL     1     150.609 166.230 190.234  0.00  0.00    -0.031 Br
ATOM     88  H   UNL     1     151.475 165.527 193.109  0.00  0.00    +0.166 HD
ATOM     89  H   UNL     1     150.906 165.214 195.853  0.00  0.00    +0.064 HD
ATOM     90  H   UNL     1     149.053 165.502 197.490  0.00  0.00    +0.062 HD
ATOM     91  H   UNL     1     146.844 166.334 196.750  0.00  0.00    +0.062 HD
ATOM     92  H   UNL     1     146.444 166.901 194.390  0.00  0.00    +0.062 HD
ENDBRANCH  75  78
ENDBRANCH  12  75
TORSDOF 10
ENDMDL
MODEL 4
REMARK VINA RESULT:      -6.9      3.437      8.325
REMARK  Name = Jasplakinolide_conf3
REMARK  10 active torsions:
REMARK  status: ('A' for Active; 'I' for Inactive)
REMARK    1  A    between atoms: C_1  and  C_2
REMARK    2  A    between atoms: C_4  and  C_47
REMARK    3  A    between atoms: C_9  and  C_40
REMARK    4  A    between atoms: C_13  and  C_29
REMARK    5  A    between atoms: N_14  and  C_28
REMARK    6  A    between atoms: C_17  and  C_27
REMARK    7  A    between atoms: C_21  and  C_26
REMARK    8  A    between atoms: C_23  and  C_25
REMARK    9  A    between atoms: C_29  and  C_30
REMARK   10  A    between atoms: C_43  and  O_46
REMARK                            x       y       z     vdW  Elec       q    Type
REMARK                         _______ _______ _______ _____ _____    ______ ____
ROOT
ATOM      1  C   UNL     1     144.500 164.240 186.796  0.00  0.00    -0.022 C 
ATOM      2  C   UNL     1     143.545 165.142 185.980  0.00  0.00    -0.010 C 
ATOM      3  C   UNL     1     142.421 165.746 186.839  0.00  0.00    +0.101 C 
ATOM      4  O   UNL     1     142.933 166.961 187.431  0.00  0.00    -0.462 OA
ATOM      5  C   UNL     1     142.322 167.388 188.573  0.00  0.00    +0.309 C 
ATOM      6  O   UNL     1     141.455 166.778 189.181  0.00  0.00    -0.251 OA
ATOM      7  C   UNL     1     142.766 168.790 188.901  0.00  0.00    +0.067 C 
ATOM      8  C   UNL     1     143.171 168.938 190.371  0.00  0.00    +0.058 C 
ATOM      9  N   UNL     1     144.586 168.648 190.548  0.00  0.00    -0.306 N 
ATOM     10  C   UNL     1     145.067 167.549 191.228  0.00  0.00    +0.234 C 
ATOM     11  O   UNL     1     144.332 166.777 191.837  0.00  0.00    -0.274 OA
ATOM     12  C   UNL     1     146.615 167.507 191.321  0.00  0.00    +0.106 C 
ATOM     13  N   UNL     1     147.279 168.153 190.150  0.00  0.00    -0.291 N 
ATOM     14  C   UNL     1     147.072 167.587 188.896  0.00  0.00    +0.236 C 
ATOM     15  O   UNL     1     146.198 166.729 188.734  0.00  0.00    -0.274 OA
ATOM     16  C   UNL     1     147.875 168.095 187.681  0.00  0.00    +0.097 C 
ATOM     17  N   UNL     1     147.840 167.043 186.665  0.00  0.00    -0.304 N 
ATOM     18  C   UNL     1     148.952 166.367 186.228  0.00  0.00    +0.217 C 
ATOM     19  O   UNL     1     150.083 166.614 186.635  0.00  0.00    -0.275 OA
ATOM     20  C   UNL     1     148.652 165.292 185.182  0.00  0.00    +0.036 C 
ATOM     21  C   UNL     1     148.312 163.939 185.837  0.00  0.00    -0.021 C 
ATOM     22  C   UNL     1     147.038 163.933 186.662  0.00  0.00    -0.076 C 
ATOM     23  C   UNL     1     145.833 164.111 186.083  0.00  0.00    -0.082 C 
ATOM     24  H   UNL     1     144.655 164.712 187.773  0.00  0.00    +0.034 HD
ATOM     25  H   UNL     1     143.120 164.550 185.158  0.00  0.00    +0.031 HD
ATOM     26  H   UNL     1     144.116 165.962 185.522  0.00  0.00    +0.031 HD
ATOM     27  H   UNL     1     142.102 165.040 187.614  0.00  0.00    +0.073 HD
ATOM     28  H   UNL     1     143.588 169.084 188.236  0.00  0.00    +0.040 HD
ATOM     29  H   UNL     1     141.909 169.430 188.651  0.00  0.00    +0.040 HD
ATOM     30  H   UNL     1     142.588 168.239 190.981  0.00  0.00    +0.055 HD
ATOM     31  H   UNL     1     145.268 169.276 190.145  0.00  0.00    +0.149 HD
ATOM     32  H   UNL     1     146.831 168.149 192.187  0.00  0.00    +0.060 HD
ATOM     33  H   UNL     1     148.913 168.276 187.969  0.00  0.00    +0.059 HD
ATOM     34  H   UNL     1     146.926 166.641 186.471  0.00  0.00    +0.149 HD
ATOM     35  H   UNL     1     147.808 165.635 184.570  0.00  0.00    +0.039 HD
ATOM     36  H   UNL     1     149.155 163.619 186.464  0.00  0.00    +0.032 HD
ATOM     37  H   UNL     1     148.215 163.170 185.059  0.00  0.00    +0.032 HD
ATOM     38  H   UNL     1     145.791 164.202 184.997  0.00  0.00    +0.057 HD
ENDROOT
BRANCH   8  39
ATOM     39  C   UNL     1     142.927 170.349 190.891  0.00  0.00    -0.026 A 
ATOM     40  C   UNL     1     141.708 170.727 191.481  0.00  0.00    -0.053 A 
ATOM     41  C   UNL     1     141.507 172.036 191.924  0.00  0.00    -0.020 A 
ATOM     42  C   UNL     1     142.517 172.977 191.772  0.00  0.00    +0.117 A 
ATOM     43  C   UNL     1     143.727 172.633 191.180  0.00  0.00    -0.020 A 
ATOM     44  C   UNL     1     143.928 171.323 190.737  0.00  0.00    -0.053 A 
ATOM     45  H   UNL     1     140.901 170.008 191.602  0.00  0.00    +0.062 HD
ATOM     46  H   UNL     1     140.566 172.321 192.386  0.00  0.00    +0.065 HD
ATOM     47  H   UNL     1     144.521 173.363 191.051  0.00  0.00    +0.065 HD
ATOM     48  H   UNL     1     144.874 171.064 190.263  0.00  0.00    +0.062 HD
BRANCH  42  49
ATOM     49  O   UNL     1     142.278 174.242 192.220  0.00  0.00    -0.507 OA
ATOM     50  H   UNL     1     142.489 174.866 191.506  0.00  0.00    +0.292 HD
ENDBRANCH  42  49
ENDBRANCH   8  39
BRANCH   1  51
ATOM     51  C   UNL     1     143.890 162.850 187.007  0.00  0.00    -0.059 C 
ATOM     52  H   UNL     1     143.355 162.795 187.963  0.00  0.00    +0.024 HD
ATOM     53  H   UNL     1     144.660 162.071 187.012  0.00  0.00    +0.024 HD
ATOM     54  H   UNL     1     143.172 162.607 186.218  0.00  0.00    +0.024 HD
ENDBRANCH   1  51
BRANCH  22  55
ATOM     55  C   UNL     1     147.248 163.702 188.136  0.00  0.00    -0.044 C 
ATOM     56  H   UNL     1     147.936 164.413 188.599  0.00  0.00    +0.027 HD
ATOM     57  H   UNL     1     146.293 163.786 188.664  0.00  0.00    +0.027 HD
ATOM     58  H   UNL     1     147.644 162.699 188.304  0.00  0.00    +0.027 HD
ENDBRANCH  22  55
BRANCH  20  59
ATOM     59  C   UNL     1     149.856 165.131 184.251  0.00  0.00    -0.054 C 
ATOM     60  H   UNL     1     149.554 164.769 183.262  0.00  0.00    +0.024 HD
ATOM     61  H   UNL     1     150.571 164.410 184.663  0.00  0.00    +0.024 HD
ATOM     62  H   UNL     1     150.377 166.085 184.120  0.00  0.00    +0.024 HD
ENDBRANCH  20  59
BRANCH  16  63
ATOM     63  C   UNL     1     147.231 169.359 187.124  0.00  0.00    -0.038 C 
ATOM     64  H   UNL     1     147.455 169.498 186.062  0.00  0.00    +0.025 HD
ATOM     65  H   UNL     1     146.143 169.322 187.242  0.00  0.00    +0.025 HD
ATOM     66  H   UNL     1     147.591 170.250 187.650  0.00  0.00    +0.025 HD
ENDBRANCH  16  63
BRANCH  13  67
ATOM     67  C   UNL     1     148.242 169.207 190.450  0.00  0.00    +0.004 C 
ATOM     68  H   UNL     1     148.107 169.635 191.441  0.00  0.00    +0.043 HD
ATOM     69  H   UNL     1     149.247 168.781 190.394  0.00  0.00    +0.043 HD
ATOM     70  H   UNL     1     148.147 170.004 189.710  0.00  0.00    +0.043 HD
ENDBRANCH  13  67
BRANCH   3  71
ATOM     71  C   UNL     1     141.227 166.119 185.960  0.00  0.00    -0.028 C 
ATOM     72  H   UNL     1     140.685 166.972 186.380  0.00  0.00    +0.027 HD
ATOM     73  H   UNL     1     140.529 165.282 185.865  0.00  0.00    +0.027 HD
ATOM     74  H   UNL     1     141.557 166.419 184.960  0.00  0.00    +0.027 HD
ENDBRANCH   3  71
BRANCH  12  75
ATOM     75  C   UNL     1     147.133 166.085 191.625  0.00  0.00    +0.003 C 
ATOM     76  H   UNL     1     147.353 165.540 190.700  0.00  0.00    +0.034 HD
ATOM     77  H   UNL     1     146.358 165.492 192.124  0.00  0.00    +0.034 HD
BRANCH  75  78
ATOM     78  C   UNL     1     148.359 166.086 192.501  0.00  0.00    -0.006 A 
ATOM     79  C   UNL     1     149.676 166.111 192.092  0.00  0.00    +0.087 A 
ATOM     80  N   UNL     1     150.487 166.111 193.187  0.00  0.00    -0.349 N 
ATOM     81  C   UNL     1     149.731 166.055 194.333  0.00  0.00    +0.048 A 
ATOM     82  C   UNL     1     150.129 166.012 195.675  0.00  0.00    -0.038 A 
ATOM     83  C   UNL     1     149.126 165.952 196.647  0.00  0.00    -0.060 A 
ATOM     84  C   UNL     1     147.783 165.940 196.289  0.00  0.00    -0.061 A 
ATOM     85  C   UNL     1     147.404 165.992 194.943  0.00  0.00    -0.052 A 
ATOM     86  C   UNL     1     148.391 166.048 193.937  0.00  0.00    +0.004 A 
ATOM     87 BR   UNL     1     150.328 166.139 190.305  0.00  0.00    -0.031 Br
ATOM     88  H   UNL     1     151.496 166.137 193.159  0.00  0.00    +0.166 HD
ATOM     89  H   UNL     1     151.176 166.022 195.959  0.00  0.00    +0.064 HD
ATOM     90  H   UNL     1     149.400 165.914 197.700  0.00  0.00    +0.062 HD
ATOM     91  H   UNL     1     147.011 165.888 197.056  0.00  0.00    +0.062 HD
ATOM     92  H   UNL     1     146.350 165.980 194.689  0.00  0.00    +0.062 HD
ENDBRANCH  75  78
ENDBRANCH  12  75
TORSDOF 10
ENDMDL
MODEL 5
REMARK VINA RESULT:      -6.9      6.198     10.510
REMARK  Name = Jasplakinolide_conf3
REMARK  10 active torsions:
REMARK  status: ('A' for Active; 'I' for Inactive)
REMARK    1  A    between atoms: C_1  and  C_2
REMARK    2  A    between atoms: C_4  and  C_47
REMARK    3  A    between atoms: C_9  and  C_40
REMARK    4  A    between atoms: C_13  and  C_29
REMARK    5  A    between atoms: N_14  and  C_28
REMARK    6  A    between atoms: C_17  and  C_27
REMARK    7  A    between atoms: C_21  and  C_26
REMARK    8  A    between atoms: C_23  and  C_25
REMARK    9  A    between atoms: C_29  and  C_30
REMARK   10  A    between atoms: C_43  and  O_46
REMARK                            x       y       z     vdW  Elec       q    Type
REMARK                         _______ _______ _______ _____ _____    ______ ____
ROOT
ATOM      1  C   UNL     1     158.546 166.071 184.928  0.00  0.00    -0.022 C 
ATOM      2  C   UNL     1     159.371 164.848 184.465  0.00  0.00    -0.010 C 
ATOM      3  C   UNL     1     160.160 164.195 185.613  0.00  0.00    +0.101 C 
ATOM      4  O   UNL     1     159.279 163.253 186.265  0.00  0.00    -0.462 OA
ATOM      5  C   UNL     1     159.574 162.933 187.556  0.00  0.00    +0.309 C 
ATOM      6  O   UNL     1     160.453 163.450 188.229  0.00  0.00    -0.251 OA
ATOM      7  C   UNL     1     158.755 161.746 187.993  0.00  0.00    +0.067 C 
ATOM      8  C   UNL     1     158.094 161.971 189.357  0.00  0.00    +0.058 C 
ATOM      9  N   UNL     1     156.783 162.583 189.200  0.00  0.00    -0.306 N 
ATOM     10  C   UNL     1     156.481 163.869 189.598  0.00  0.00    +0.234 C 
ATOM     11  O   UNL     1     157.274 164.570 190.220  0.00  0.00    -0.274 OA
ATOM     12  C   UNL     1     154.996 164.255 189.369  0.00  0.00    +0.106 C 
ATOM     13  N   UNL     1     154.393 163.552 188.199  0.00  0.00    -0.291 N 
ATOM     14  C   UNL     1     154.931 163.811 186.942  0.00  0.00    +0.236 C 
ATOM     15  O   UNL     1     156.002 164.417 186.833  0.00  0.00    -0.274 OA
ATOM     16  C   UNL     1     154.236 163.262 185.679  0.00  0.00    +0.097 C 
ATOM     17  N   UNL     1     154.690 164.068 184.546  0.00  0.00    -0.304 N 
ATOM     18  C   UNL     1     153.861 164.868 183.798  0.00  0.00    +0.217 C 
ATOM     19  O   UNL     1     152.654 164.949 184.001  0.00  0.00    -0.275 OA
ATOM     20  C   UNL     1     154.580 165.633 182.686  0.00  0.00    +0.036 C 
ATOM     21  C   UNL     1     155.128 166.984 183.187  0.00  0.00    -0.021 C 
ATOM     22  C   UNL     1     156.215 166.877 184.241  0.00  0.00    -0.076 C 
ATOM     23  C   UNL     1     157.418 166.340 183.950  0.00  0.00    -0.082 C 
ATOM     24  H   UNL     1     158.125 165.839 185.913  0.00  0.00    +0.034 HD
ATOM     25  H   UNL     1     160.054 165.167 183.667  0.00  0.00    +0.031 HD
ATOM     26  H   UNL     1     158.699 164.095 184.029  0.00  0.00    +0.031 HD
ATOM     27  H   UNL     1     160.512 164.952 186.322  0.00  0.00    +0.073 HD
ATOM     28  H   UNL     1     158.004 161.511 187.228  0.00  0.00    +0.040 HD
ATOM     29  H   UNL     1     159.458 160.903 188.019  0.00  0.00    +0.040 HD
ATOM     30  H   UNL     1     158.724 162.635 189.961  0.00  0.00    +0.055 HD
ATOM     31  H   UNL     1     156.042 162.049 188.766  0.00  0.00    +0.149 HD
ATOM     32  H   UNL     1     154.493 163.852 190.260  0.00  0.00    +0.060 HD
ATOM     33  H   UNL     1     153.152 163.364 185.776  0.00  0.00    +0.059 HD
ATOM     34  H   UNL     1     155.692 164.222 184.483  0.00  0.00    +0.149 HD
ATOM     35  H   UNL     1     155.402 165.008 182.315  0.00  0.00    +0.039 HD
ATOM     36  H   UNL     1     154.299 167.589 183.577  0.00  0.00    +0.032 HD
ATOM     37  H   UNL     1     155.535 167.551 182.338  0.00  0.00    +0.032 HD
ATOM     38  H   UNL     1     157.611 166.036 182.921  0.00  0.00    +0.057 HD
ENDROOT
BRANCH   8  39
ATOM     39  C   UNL     1     157.899 160.667 190.120  0.00  0.00    -0.026 A 
ATOM     40  C   UNL     1     156.883 159.754 189.790  0.00  0.00    -0.053 A 
ATOM     41  C   UNL     1     156.714 158.580 190.526  0.00  0.00    -0.020 A 
ATOM     42  C   UNL     1     157.552 158.315 191.601  0.00  0.00    +0.117 A 
ATOM     43  C   UNL     1     158.557 159.208 191.957  0.00  0.00    -0.020 A 
ATOM     44  C   UNL     1     158.725 160.383 191.220  0.00  0.00    -0.053 A 
ATOM     45  H   UNL     1     156.210 159.946 188.957  0.00  0.00    +0.062 HD
ATOM     46  H   UNL     1     155.932 157.874 190.263  0.00  0.00    +0.065 HD
ATOM     47  H   UNL     1     159.214 159.013 192.800  0.00  0.00    +0.065 HD
ATOM     48  H   UNL     1     159.507 161.083 191.512  0.00  0.00    +0.062 HD
BRANCH  42  49
ATOM     49  O   UNL     1     157.353 157.157 192.292  0.00  0.00    -0.507 OA
ATOM     50  H   UNL     1     156.611 156.679 191.885  0.00  0.00    +0.292 HD
ENDBRANCH  42  49
ENDBRANCH   8  39
BRANCH   1  51
ATOM     51  C   UNL     1     159.434 167.314 185.049  0.00  0.00    -0.059 C 
ATOM     52  H   UNL     1     160.023 167.289 185.973  0.00  0.00    +0.024 HD
ATOM     53  H   UNL     1     158.838 168.233 185.059  0.00  0.00    +0.024 HD
ATOM     54  H   UNL     1     160.139 167.380 184.215  0.00  0.00    +0.024 HD
ENDBRANCH   1  51
BRANCH  22  55
ATOM     55  C   UNL     1     155.833 167.425 185.591  0.00  0.00    -0.044 C 
ATOM     56  H   UNL     1     156.166 168.452 185.759  0.00  0.00    +0.027 HD
ATOM     57  H   UNL     1     154.744 167.418 185.700  0.00  0.00    +0.027 HD
ATOM     58  H   UNL     1     156.259 166.805 186.381  0.00  0.00    +0.027 HD
ENDBRANCH  22  55
BRANCH  20  59
ATOM     59  C   UNL     1     153.618 165.865 181.518  0.00  0.00    -0.054 C 
ATOM     60  H   UNL     1     152.863 166.621 181.762  0.00  0.00    +0.024 HD
ATOM     61  H   UNL     1     153.089 164.940 181.262  0.00  0.00    +0.024 HD
ATOM     62  H   UNL     1     154.160 166.200 180.628  0.00  0.00    +0.024 HD
ENDBRANCH  20  59
BRANCH  16  63
ATOM     63  C   UNL     1     154.633 161.807 185.459  0.00  0.00    -0.038 C 
ATOM     64  H   UNL     1     154.961 161.625 184.431  0.00  0.00    +0.025 HD
ATOM     65  H   UNL     1     155.448 161.523 186.132  0.00  0.00    +0.025 HD
ATOM     66  H   UNL     1     153.791 161.134 185.655  0.00  0.00    +0.025 HD
ENDBRANCH  16  63
BRANCH  13  67
ATOM     67  C   UNL     1     153.167 162.805 188.452  0.00  0.00    +0.004 C 
ATOM     68  H   UNL     1     153.076 161.916 187.832  0.00  0.00    +0.043 HD
ATOM     69  H   UNL     1     153.163 162.494 189.501  0.00  0.00    +0.043 HD
ATOM     70  H   UNL     1     152.305 163.450 188.265  0.00  0.00    +0.043 HD
ENDBRANCH  13  67
BRANCH   3  71
ATOM     71  C   UNL     1     161.352 163.416 185.059  0.00  0.00    -0.028 C 
ATOM     72  H   UNL     1     162.159 164.094 184.764  0.00  0.00    +0.027 HD
ATOM     73  H   UNL     1     161.066 162.823 184.185  0.00  0.00    +0.027 HD
ATOM     74  H   UNL     1     161.768 162.745 185.819  0.00  0.00    +0.027 HD
ENDBRANCH   3  71
BRANCH  12  75
ATOM     75  C   UNL     1     154.798 165.786 189.347  0.00  0.00    +0.003 C 
ATOM     76  H   UNL     1     155.001 166.195 188.351  0.00  0.00    +0.034 HD
ATOM     77  H   UNL     1     155.523 166.277 190.007  0.00  0.00    +0.034 HD
BRANCH  75  78
ATOM     78  C   UNL     1     153.417 166.202 189.780  0.00  0.00    -0.006 A 
ATOM     79  C   UNL     1     152.370 166.590 188.969  0.00  0.00    +0.087 A 
ATOM     80  N   UNL     1     151.286 166.879 189.742  0.00  0.00    -0.349 N 
ATOM     81  C   UNL     1     151.598 166.720 191.070  0.00  0.00    +0.048 A 
ATOM     82  C   UNL     1     150.813 166.924 192.212  0.00  0.00    -0.038 A 
ATOM     83  C   UNL     1     151.404 166.686 193.456  0.00  0.00    -0.060 A 
ATOM     84  C   UNL     1     152.723 166.256 193.551  0.00  0.00    -0.061 A 
ATOM     85  C   UNL     1     153.489 166.050 192.399  0.00  0.00    -0.052 A 
ATOM     86  C   UNL     1     152.925 166.287 191.127  0.00  0.00    +0.004 A 
ATOM     87 BR   UNL     1     152.371 166.725 187.072  0.00  0.00    -0.031 Br
ATOM     88  H   UNL     1     150.388 167.178 189.389  0.00  0.00    +0.166 HD
ATOM     89  H   UNL     1     149.783 167.258 192.143  0.00  0.00    +0.064 HD
ATOM     90  H   UNL     1     150.823 166.837 194.365  0.00  0.00    +0.062 HD
ATOM     91  H   UNL     1     153.173 166.078 194.527  0.00  0.00    +0.062 HD
ATOM     92  H   UNL     1     154.515 165.716 192.499  0.00  0.00    +0.062 HD
ENDBRANCH  75  78
ENDBRANCH  12  75
TORSDOF 10
ENDMDL
MODEL 6
REMARK VINA RESULT:      -6.6      3.094      7.024
REMARK  Name = Jasplakinolide_conf3
REMARK  10 active torsions:
REMARK  status: ('A' for Active; 'I' for Inactive)
REMARK    1  A    between atoms: C_1  and  C_2
REMARK    2  A    between atoms: C_4  and  C_47
REMARK    3  A    between atoms: C_9  and  C_40
REMARK    4  A    between atoms: C_13  and  C_29
REMARK    5  A    between atoms: N_14  and  C_28
REMARK    6  A    between atoms: C_17  and  C_27
REMARK    7  A    between atoms: C_21  and  C_26
REMARK    8  A    between atoms: C_23  and  C_25
REMARK    9  A    between atoms: C_29  and  C_30
REMARK   10  A    between atoms: C_43  and  O_46
REMARK                            x       y       z     vdW  Elec       q    Type
REMARK                         _______ _______ _______ _____ _____    ______ ____
ROOT
ATOM      1  C   UNL     1     150.126 169.905 191.930  0.00  0.00    -0.022 C 
ATOM      2  C   UNL     1     149.332 170.990 192.695  0.00  0.00    -0.010 C 
ATOM      3  C   UNL     1     148.457 171.849 191.766  0.00  0.00    +0.101 C 
ATOM      4  O   UNL     1     147.197 171.160 191.597  0.00  0.00    -0.462 OA
ATOM      5  C   UNL     1     146.482 171.461 190.476  0.00  0.00    +0.309 C 
ATOM      6  O   UNL     1     146.865 172.180 189.565  0.00  0.00    -0.251 OA
ATOM      7  C   UNL     1     145.090 170.894 190.585  0.00  0.00    +0.067 C 
ATOM      8  C   UNL     1     144.672 170.142 189.318  0.00  0.00    +0.058 C 
ATOM      9  N   UNL     1     145.050 168.739 189.402  0.00  0.00    -0.306 N 
ATOM     10  C   UNL     1     146.020 168.154 188.615  0.00  0.00    +0.234 C 
ATOM     11  O   UNL     1     146.573 168.753 187.697  0.00  0.00    -0.274 OA
ATOM     12  C   UNL     1     146.186 166.632 188.866  0.00  0.00    +0.106 C 
ATOM     13  N   UNL     1     145.868 166.243 190.271  0.00  0.00    -0.291 N 
ATOM     14  C   UNL     1     146.665 166.768 191.283  0.00  0.00    +0.236 C 
ATOM     15  O   UNL     1     147.453 167.690 191.044  0.00  0.00    -0.274 OA
ATOM     16  C   UNL     1     146.505 166.260 192.731  0.00  0.00    +0.097 C 
ATOM     17  N   UNL     1     147.740 166.582 193.446  0.00  0.00    -0.304 N 
ATOM     18  C   UNL     1     148.595 165.636 193.955  0.00  0.00    +0.217 C 
ATOM     19  O   UNL     1     148.374 164.431 193.881  0.00  0.00    -0.275 OA
ATOM     20  C   UNL     1     149.834 166.222 194.633  0.00  0.00    +0.036 C 
ATOM     21  C   UNL     1     150.979 166.450 193.628  0.00  0.00    -0.021 C 
ATOM     22  C   UNL     1     150.690 167.488 192.558  0.00  0.00    -0.076 C 
ATOM     23  C   UNL     1     150.527 168.789 192.876  0.00  0.00    -0.082 C 
ATOM     24  H   UNL     1     149.474 169.500 191.147  0.00  0.00    +0.034 HD
ATOM     25  H   UNL     1     150.042 171.624 193.242  0.00  0.00    +0.031 HD
ATOM     26  H   UNL     1     148.685 170.513 193.443  0.00  0.00    +0.031 HD
ATOM     27  H   UNL     1     148.949 172.001 190.799  0.00  0.00    +0.073 HD
ATOM     28  H   UNL     1     145.023 170.244 191.467  0.00  0.00    +0.040 HD
ATOM     29  H   UNL     1     144.440 171.758 190.775  0.00  0.00    +0.040 HD
ATOM     30  H   UNL     1     145.169 170.590 188.449  0.00  0.00    +0.055 HD
ATOM     31  H   UNL     1     144.588 168.148 190.080  0.00  0.00    +0.149 HD
ATOM     32  H   UNL     1     145.398 166.188 188.240  0.00  0.00    +0.060 HD
ATOM     33  H   UNL     1     146.365 165.177 192.733  0.00  0.00    +0.059 HD
ATOM     34  H   UNL     1     148.086 167.531 193.332  0.00  0.00    +0.149 HD
ATOM     35  H   UNL     1     149.550 167.174 195.102  0.00  0.00    +0.039 HD
ATOM     36  H   UNL     1     151.236 165.495 193.150  0.00  0.00    +0.032 HD
ATOM     37  H   UNL     1     151.884 166.763 194.167  0.00  0.00    +0.032 HD
ATOM     38  H   UNL     1     150.665 169.086 193.916  0.00  0.00    +0.057 HD
ENDROOT
BRANCH   8  39
ATOM     39  C   UNL     1     143.166 170.195 189.092  0.00  0.00    -0.026 A 
ATOM     40  C   UNL     1     142.491 171.404 188.846  0.00  0.00    -0.053 A 
ATOM     41  C   UNL     1     141.106 171.421 188.670  0.00  0.00    -0.020 A 
ATOM     42  C   UNL     1     140.387 170.236 188.746  0.00  0.00    +0.117 A 
ATOM     43  C   UNL     1     141.028 169.029 189.001  0.00  0.00    -0.020 A 
ATOM     44  C   UNL     1     142.414 169.012 189.178  0.00  0.00    -0.053 A 
ATOM     45  H   UNL     1     143.034 172.345 188.791  0.00  0.00    +0.062 HD
ATOM     46  H   UNL     1     140.590 172.356 188.474  0.00  0.00    +0.065 HD
ATOM     47  H   UNL     1     140.475 168.098 189.068  0.00  0.00    +0.065 HD
ATOM     48  H   UNL     1     142.909 168.064 189.388  0.00  0.00    +0.062 HD
BRANCH  42  49
ATOM     49  O   UNL     1     139.037 170.300 188.567  0.00  0.00    -0.507 OA
ATOM     50  H   UNL     1     138.856 170.384 187.616  0.00  0.00    +0.292 HD
ENDBRANCH  42  49
ENDBRANCH   8  39
BRANCH   1  51
ATOM     51  C   UNL     1     151.376 170.503 191.276  0.00  0.00    -0.059 C 
ATOM     52  H   UNL     1     151.461 170.190 190.229  0.00  0.00    +0.024 HD
ATOM     53  H   UNL     1     152.289 170.187 191.792  0.00  0.00    +0.024 HD
ATOM     54  H   UNL     1     151.345 171.596 191.287  0.00  0.00    +0.024 HD
ENDBRANCH   1  51
BRANCH  22  55
ATOM     55  C   UNL     1     150.622 166.940 191.157  0.00  0.00    -0.044 C 
ATOM     56  H   UNL     1     149.603 166.786 190.794  0.00  0.00    +0.027 HD
ATOM     57  H   UNL     1     151.110 167.632 190.463  0.00  0.00    +0.027 HD
ATOM     58  H   UNL     1     151.141 165.981 191.104  0.00  0.00    +0.027 HD
ENDBRANCH  22  55
BRANCH  20  59
ATOM     59  C   UNL     1     150.301 165.285 195.749  0.00  0.00    -0.054 C 
ATOM     60  H   UNL     1     150.205 165.754 196.735  0.00  0.00    +0.024 HD
ATOM     61  H   UNL     1     151.354 165.014 195.613  0.00  0.00    +0.024 HD
ATOM     62  H   UNL     1     149.713 164.361 195.753  0.00  0.00    +0.024 HD
ENDBRANCH  20  59
BRANCH  16  63
ATOM     63  C   UNL     1     145.333 166.967 193.402  0.00  0.00    -0.038 C 
ATOM     64  H   UNL     1     145.441 166.994 194.490  0.00  0.00    +0.025 HD
ATOM     65  H   UNL     1     145.245 167.997 193.042  0.00  0.00    +0.025 HD
ATOM     66  H   UNL     1     144.387 166.458 193.183  0.00  0.00    +0.025 HD
ENDBRANCH  16  63
BRANCH  13  67
ATOM     67  C   UNL     1     144.870 165.194 190.444  0.00  0.00    +0.004 C 
ATOM     68  H   UNL     1     145.222 164.216 190.122  0.00  0.00    +0.043 HD
ATOM     69  H   UNL     1     144.613 165.134 191.505  0.00  0.00    +0.043 HD
ATOM     70  H   UNL     1     143.976 165.448 189.871  0.00  0.00    +0.043 HD
ENDBRANCH  13  67
BRANCH   3  71
ATOM     71  C   UNL     1     148.168 173.202 192.414  0.00  0.00    -0.028 C 
ATOM     72  H   UNL     1     148.637 173.270 193.401  0.00  0.00    +0.027 HD
ATOM     73  H   UNL     1     147.092 173.363 192.534  0.00  0.00    +0.027 HD
ATOM     74  H   UNL     1     148.582 174.019 191.814  0.00  0.00    +0.027 HD
ENDBRANCH   3  71
BRANCH  12  75
ATOM     75  C   UNL     1     147.553 166.115 188.370  0.00  0.00    +0.003 C 
ATOM     76  H   UNL     1     148.106 165.624 189.179  0.00  0.00    +0.034 HD
ATOM     77  H   UNL     1     148.191 166.951 188.059  0.00  0.00    +0.034 HD
BRANCH  75  78
ATOM     78  C   UNL     1     147.431 165.163 187.208  0.00  0.00    -0.006 A 
ATOM     79  C   UNL     1     147.684 165.432 185.880  0.00  0.00    +0.087 A 
ATOM     80  N   UNL     1     147.465 164.307 185.144  0.00  0.00    -0.349 N 
ATOM     81  C   UNL     1     147.037 163.287 185.958  0.00  0.00    +0.048 A 
ATOM     82  C   UNL     1     146.674 161.972 185.642  0.00  0.00    -0.038 A 
ATOM     83  C   UNL     1     146.265 161.142 186.689  0.00  0.00    -0.060 A 
ATOM     84  C   UNL     1     146.228 161.609 187.999  0.00  0.00    -0.061 A 
ATOM     85  C   UNL     1     146.603 162.924 188.296  0.00  0.00    -0.052 A 
ATOM     86  C   UNL     1     147.014 163.789 187.261  0.00  0.00    +0.004 A 
ATOM     87 BR   UNL     1     148.247 167.085 185.125  0.00  0.00    -0.031 Br
ATOM     88  H   UNL     1     147.589 164.237 184.144  0.00  0.00    +0.166 HD
ATOM     89  H   UNL     1     146.703 161.603 184.622  0.00  0.00    +0.064 HD
ATOM     90  H   UNL     1     145.973 160.115 186.479  0.00  0.00    +0.062 HD
ATOM     91  H   UNL     1     145.903 160.953 188.805  0.00  0.00    +0.062 HD
ATOM     92  H   UNL     1     146.563 163.265 189.325  0.00  0.00    +0.062 HD
ENDBRANCH  75  78
ENDBRANCH  12  75
TORSDOF 10
ENDMDL
MODEL 7
REMARK VINA RESULT:      -6.6      4.005      9.138
REMARK  Name = Jasplakinolide_conf3
REMARK  10 active torsions:
REMARK  status: ('A' for Active; 'I' for Inactive)
REMARK    1  A    between atoms: C_1  and  C_2
REMARK    2  A    between atoms: C_4  and  C_47
REMARK    3  A    between atoms: C_9  and  C_40
REMARK    4  A    between atoms: C_13  and  C_29
REMARK    5  A    between atoms: N_14  and  C_28
REMARK    6  A    between atoms: C_17  and  C_27
REMARK    7  A    between atoms: C_21  and  C_26
REMARK    8  A    between atoms: C_23  and  C_25
REMARK    9  A    between atoms: C_29  and  C_30
REMARK   10  A    between atoms: C_43  and  O_46
REMARK                            x       y       z     vdW  Elec       q    Type
REMARK                         _______ _______ _______ _____ _____    ______ ____
ROOT
ATOM      1  C   UNL     1     144.562 165.443 186.216  0.00  0.00    -0.022 C 
ATOM      2  C   UNL     1     143.030 165.321 186.041  0.00  0.00    -0.010 C 
ATOM      3  C   UNL     1     142.276 165.362 187.381  0.00  0.00    +0.101 C 
ATOM      4  O   UNL     1     142.047 166.751 187.708  0.00  0.00    -0.462 OA
ATOM      5  C   UNL     1     141.850 167.044 189.025  0.00  0.00    +0.309 C 
ATOM      6  O   UNL     1     141.951 166.251 189.948  0.00  0.00    -0.251 OA
ATOM      7  C   UNL     1     141.346 168.457 189.168  0.00  0.00    +0.067 C 
ATOM      8  C   UNL     1     142.110 169.236 190.243  0.00  0.00    +0.058 C 
ATOM      9  N   UNL     1     143.269 169.905 189.671  0.00  0.00    -0.306 N 
ATOM     10  C   UNL     1     144.574 169.559 189.953  0.00  0.00    +0.234 C 
ATOM     11  O   UNL     1     144.865 168.721 190.802  0.00  0.00    -0.274 OA
ATOM     12  C   UNL     1     145.620 170.469 189.256  0.00  0.00    +0.106 C 
ATOM     13  N   UNL     1     145.135 171.006 187.951  0.00  0.00    -0.291 N 
ATOM     14  C   UNL     1     144.860 170.093 186.938  0.00  0.00    +0.236 C 
ATOM     15  O   UNL     1     144.803 168.883 187.186  0.00  0.00    -0.274 OA
ATOM     16  C   UNL     1     144.536 170.595 185.516  0.00  0.00    +0.097 C 
ATOM     17  N   UNL     1     144.785 169.487 184.595  0.00  0.00    -0.304 N 
ATOM     18  C   UNL     1     145.753 169.508 183.621  0.00  0.00    +0.217 C 
ATOM     19  O   UNL     1     146.475 170.480 183.421  0.00  0.00    -0.275 OA
ATOM     20  C   UNL     1     145.837 168.217 182.805  0.00  0.00    +0.036 C 
ATOM     21  C   UNL     1     146.779 167.188 183.461  0.00  0.00    -0.021 C 
ATOM     22  C   UNL     1     146.315 166.672 184.811  0.00  0.00    -0.076 C 
ATOM     23  C   UNL     1     145.197 165.926 184.925  0.00  0.00    -0.082 C 
ATOM     24  H   UNL     1     144.753 166.174 187.010  0.00  0.00    +0.034 HD
ATOM     25  H   UNL     1     142.811 164.385 185.510  0.00  0.00    +0.031 HD
ATOM     26  H   UNL     1     142.666 166.142 185.409  0.00  0.00    +0.031 HD
ATOM     27  H   UNL     1     142.856 164.868 188.169  0.00  0.00    +0.073 HD
ATOM     28  H   UNL     1     141.401 168.970 188.199  0.00  0.00    +0.040 HD
ATOM     29  H   UNL     1     140.281 168.361 189.418  0.00  0.00    +0.040 HD
ATOM     30  H   UNL     1     142.450 168.542 191.021  0.00  0.00    +0.055 HD
ATOM     31  H   UNL     1     143.124 170.663 189.018  0.00  0.00    +0.149 HD
ATOM     32  H   UNL     1     145.693 171.331 189.934  0.00  0.00    +0.060 HD
ATOM     33  H   UNL     1     145.193 171.428 185.256  0.00  0.00    +0.059 HD
ATOM     34  H   UNL     1     144.391 168.589 184.861  0.00  0.00    +0.149 HD
ATOM     35  H   UNL     1     144.826 167.799 182.719  0.00  0.00    +0.039 HD
ATOM     36  H   UNL     1     147.780 167.628 183.563  0.00  0.00    +0.032 HD
ATOM     37  H   UNL     1     146.902 166.325 182.793  0.00  0.00    +0.032 HD
ATOM     38  H   UNL     1     144.665 165.654 184.013  0.00  0.00    +0.057 HD
ENDROOT
BRANCH   8  39
ATOM     39  C   UNL     1     141.245 170.306 190.898  0.00  0.00    -0.026 A 
ATOM     40  C   UNL     1     139.852 170.358 190.708  0.00  0.00    -0.053 A 
ATOM     41  C   UNL     1     139.092 171.368 191.300  0.00  0.00    -0.020 A 
ATOM     42  C   UNL     1     139.716 172.335 192.078  0.00  0.00    +0.117 A 
ATOM     43  C   UNL     1     141.092 172.313 192.270  0.00  0.00    -0.020 A 
ATOM     44  C   UNL     1     141.854 171.303 191.677  0.00  0.00    -0.053 A 
ATOM     45  H   UNL     1     139.344 169.615 190.096  0.00  0.00    +0.062 HD
ATOM     46  H   UNL     1     138.016 171.400 191.157  0.00  0.00    +0.065 HD
ATOM     47  H   UNL     1     141.591 173.068 192.871  0.00  0.00    +0.065 HD
ATOM     48  H   UNL     1     142.934 171.300 191.823  0.00  0.00    +0.062 HD
BRANCH  42  49
ATOM     49  O   UNL     1     138.934 173.301 192.638  0.00  0.00    -0.507 OA
ATOM     50  H   UNL     1     138.097 173.344 192.146  0.00  0.00    +0.292 HD
ENDBRANCH  42  49
ENDBRANCH   8  39
BRANCH   1  51
ATOM     51  C   UNL     1     145.174 164.098 186.622  0.00  0.00    -0.059 C 
ATOM     52  H   UNL     1     146.255 164.086 186.443  0.00  0.00    +0.024 HD
ATOM     53  H   UNL     1     144.734 163.270 186.055  0.00  0.00    +0.024 HD
ATOM     54  H   UNL     1     145.018 163.896 187.686  0.00  0.00    +0.024 HD
ENDBRANCH   1  51
BRANCH  22  55
ATOM     55  C   UNL     1     147.206 167.051 185.966  0.00  0.00    -0.044 C 
ATOM     56  H   UNL     1     146.711 167.669 186.718  0.00  0.00    +0.027 HD
ATOM     57  H   UNL     1     147.561 166.148 186.473  0.00  0.00    +0.027 HD
ATOM     58  H   UNL     1     148.075 167.602 185.603  0.00  0.00    +0.027 HD
ENDBRANCH  22  55
BRANCH  20  59
ATOM     59  C   UNL     1     146.323 168.535 181.389  0.00  0.00    -0.054 C 
ATOM     60  H   UNL     1     145.630 169.206 180.868  0.00  0.00    +0.024 HD
ATOM     61  H   UNL     1     146.408 167.620 180.793  0.00  0.00    +0.024 HD
ATOM     62  H   UNL     1     147.307 169.015 181.414  0.00  0.00    +0.024 HD
ENDBRANCH  20  59
BRANCH  16  63
ATOM     63  C   UNL     1     143.070 171.004 185.432  0.00  0.00    -0.038 C 
ATOM     64  H   UNL     1     142.758 171.195 184.401  0.00  0.00    +0.025 HD
ATOM     65  H   UNL     1     142.426 170.221 185.844  0.00  0.00    +0.025 HD
ATOM     66  H   UNL     1     142.883 171.922 186.002  0.00  0.00    +0.025 HD
ENDBRANCH  16  63
BRANCH  13  67
ATOM     67  C   UNL     1     145.178 172.455 187.790  0.00  0.00    +0.004 C 
ATOM     68  H   UNL     1     145.286 172.984 188.735  0.00  0.00    +0.043 HD
ATOM     69  H   UNL     1     146.033 172.706 187.156  0.00  0.00    +0.043 HD
ATOM     70  H   UNL     1     144.259 172.791 187.305  0.00  0.00    +0.043 HD
ENDBRANCH  13  67
BRANCH   3  71
ATOM     71  C   UNL     1     140.914 164.682 187.242  0.00  0.00    -0.028 C 
ATOM     72  H   UNL     1     140.794 163.890 187.988  0.00  0.00    +0.027 HD
ATOM     73  H   UNL     1     140.793 164.239 186.249  0.00  0.00    +0.027 HD
ATOM     74  H   UNL     1     140.102 165.397 187.411  0.00  0.00    +0.027 HD
ENDBRANCH   3  71
BRANCH  12  75
ATOM     75  C   UNL     1     147.006 169.793 189.177  0.00  0.00    +0.003 C 
ATOM     76  H   UNL     1     147.594 170.198 188.346  0.00  0.00    +0.034 HD
ATOM     77  H   UNL     1     146.900 168.725 188.953  0.00  0.00    +0.034 HD
BRANCH  75  78
ATOM     78  C   UNL     1     147.795 169.927 190.452  0.00  0.00    -0.006 A 
ATOM     79  C   UNL     1     148.293 168.908 191.237  0.00  0.00    +0.087 A 
ATOM     80  N   UNL     1     148.957 169.442 192.300  0.00  0.00    -0.349 N 
ATOM     81  C   UNL     1     148.887 170.813 192.259  0.00  0.00    +0.048 A 
ATOM     82  C   UNL     1     149.399 171.770 193.145  0.00  0.00    -0.038 A 
ATOM     83  C   UNL     1     149.168 173.116 192.850  0.00  0.00    -0.060 A 
ATOM     84  C   UNL     1     148.459 173.488 191.713  0.00  0.00    -0.061 A 
ATOM     85  C   UNL     1     147.963 172.518 190.835  0.00  0.00    -0.052 A 
ATOM     86  C   UNL     1     148.173 171.150 191.106  0.00  0.00    +0.004 A 
ATOM     87 BR   UNL     1     148.115 167.037 190.944  0.00  0.00    -0.031 Br
ATOM     88  H   UNL     1     149.422 168.907 193.019  0.00  0.00    +0.166 HD
ATOM     89  H   UNL     1     149.954 171.484 194.032  0.00  0.00    +0.064 HD
ATOM     90  H   UNL     1     149.549 173.886 193.519  0.00  0.00    +0.062 HD
ATOM     91  H   UNL     1     148.281 174.540 191.497  0.00  0.00    +0.062 HD
ATOM     92  H   UNL     1     147.411 172.833 189.956  0.00  0.00    +0.062 HD
ENDBRANCH  75  78
ENDBRANCH  12  75
TORSDOF 10
ENDMDL
MODEL 8
REMARK VINA RESULT:      -6.2      3.756      7.763
REMARK  Name = Jasplakinolide_conf3
REMARK  10 active torsions:
REMARK  status: ('A' for Active; 'I' for Inactive)
REMARK    1  A    between atoms: C_1  and  C_2
REMARK    2  A    between atoms: C_4  and  C_47
REMARK    3  A    between atoms: C_9  and  C_40
REMARK    4  A    between atoms: C_13  and  C_29
REMARK    5  A    between atoms: N_14  and  C_28
REMARK    6  A    between atoms: C_17  and  C_27
REMARK    7  A    between atoms: C_21  and  C_26
REMARK    8  A    between atoms: C_23  and  C_25
REMARK    9  A    between atoms: C_29  and  C_30
REMARK   10  A    between atoms: C_43  and  O_46
REMARK                            x       y       z     vdW  Elec       q    Type
REMARK                         _______ _______ _______ _____ _____    ______ ____
ROOT
ATOM      1  C   UNL     1     141.104 167.792 186.498  0.00  0.00    -0.022 C 
ATOM      2  C   UNL     1     140.060 166.660 186.640  0.00  0.00    -0.010 C 
ATOM      3  C   UNL     1     140.561 165.317 186.079  0.00  0.00    +0.101 C 
ATOM      4  O   UNL     1     141.301 164.657 187.130  0.00  0.00    -0.462 OA
ATOM      5  C   UNL     1     142.220 163.729 186.740  0.00  0.00    +0.309 C 
ATOM      6  O   UNL     1     142.534 163.488 185.584  0.00  0.00    -0.251 OA
ATOM      7  C   UNL     1     142.691 162.937 187.932  0.00  0.00    +0.067 C 
ATOM      8  C   UNL     1     144.218 162.819 187.979  0.00  0.00    +0.058 C 
ATOM      9  N   UNL     1     144.799 163.928 188.720  0.00  0.00    -0.306 N 
ATOM     10  C   UNL     1     145.569 164.918 188.146  0.00  0.00    +0.234 C 
ATOM     11  O   UNL     1     145.919 164.882 186.969  0.00  0.00    -0.274 OA
ATOM     12  C   UNL     1     146.114 165.950 189.169  0.00  0.00    +0.106 C 
ATOM     13  N   UNL     1     145.204 166.137 190.337  0.00  0.00    -0.291 N 
ATOM     14  C   UNL     1     143.934 166.650 190.091  0.00  0.00    +0.236 C 
ATOM     15  O   UNL     1     143.505 166.731 188.936  0.00  0.00    -0.274 OA
ATOM     16  C   UNL     1     143.020 167.038 191.272  0.00  0.00    +0.097 C 
ATOM     17  N   UNL     1     142.018 167.972 190.759  0.00  0.00    -0.304 N 
ATOM     18  C   UNL     1     141.916 169.280 191.166  0.00  0.00    +0.217 C 
ATOM     19  O   UNL     1     142.644 169.768 192.026  0.00  0.00    -0.275 OA
ATOM     20  C   UNL     1     140.807 170.063 190.460  0.00  0.00    +0.036 C 
ATOM     21  C   UNL     1     141.307 170.702 189.150  0.00  0.00    -0.021 C 
ATOM     22  C   UNL     1     141.719 169.712 188.076  0.00  0.00    -0.076 C 
ATOM     23  C   UNL     1     140.813 168.897 187.495  0.00  0.00    -0.082 C 
ATOM     24  H   UNL     1     142.093 167.365 186.705  0.00  0.00    +0.034 HD
ATOM     25  H   UNL     1     139.139 166.966 186.127  0.00  0.00    +0.031 HD
ATOM     26  H   UNL     1     139.807 166.524 187.700  0.00  0.00    +0.031 HD
ATOM     27  H   UNL     1     141.193 165.476 185.198  0.00  0.00    +0.073 HD
ATOM     28  H   UNL     1     142.305 163.390 188.854  0.00  0.00    +0.040 HD
ATOM     29  H   UNL     1     142.212 161.954 187.834  0.00  0.00    +0.040 HD
ATOM     30  H   UNL     1     144.615 162.830 186.957  0.00  0.00    +0.055 HD
ATOM     31  H   UNL     1     144.628 163.996 189.714  0.00  0.00    +0.149 HD
ATOM     32  H   UNL     1     147.018 165.462 189.560  0.00  0.00    +0.060 HD
ATOM     33  H   UNL     1     143.605 167.535 192.049  0.00  0.00    +0.059 HD
ATOM     34  H   UNL     1     141.556 167.701 189.895  0.00  0.00    +0.149 HD
ATOM     35  H   UNL     1     139.980 169.372 190.250  0.00  0.00    +0.039 HD
ATOM     36  H   UNL     1     142.148 171.371 189.372  0.00  0.00    +0.032 HD
ATOM     37  H   UNL     1     140.520 171.345 188.733  0.00  0.00    +0.032 HD
ATOM     38  H   UNL     1     139.766 169.008 187.776  0.00  0.00    +0.057 HD
ENDROOT
BRANCH   8  39
ATOM     39  C   UNL     1     144.671 161.532 188.658  0.00  0.00    -0.026 A 
ATOM     40  C   UNL     1     143.759 160.640 189.250  0.00  0.00    -0.053 A 
ATOM     41  C   UNL     1     144.209 159.482 189.887  0.00  0.00    -0.020 A 
ATOM     42  C   UNL     1     145.570 159.212 189.945  0.00  0.00    +0.117 A 
ATOM     43  C   UNL     1     146.494 160.084 189.379  0.00  0.00    -0.020 A 
ATOM     44  C   UNL     1     146.043 161.243 188.741  0.00  0.00    -0.053 A 
ATOM     45  H   UNL     1     142.690 160.836 189.224  0.00  0.00    +0.062 HD
ATOM     46  H   UNL     1     143.501 158.793 190.338  0.00  0.00    +0.065 HD
ATOM     47  H   UNL     1     147.560 159.886 189.424  0.00  0.00    +0.065 HD
ATOM     48  H   UNL     1     146.773 161.928 188.310  0.00  0.00    +0.062 HD
BRANCH  42  49
ATOM     49  O   UNL     1     145.965 158.071 190.576  0.00  0.00    -0.507 OA
ATOM     50  H   UNL     1     145.486 158.002 191.419  0.00  0.00    +0.292 HD
ENDBRANCH  42  49
ENDBRANCH   8  39
BRANCH   1  51
ATOM     51  C   UNL     1     141.099 168.363 185.075  0.00  0.00    -0.059 C 
ATOM     52  H   UNL     1     141.368 167.595 184.341  0.00  0.00    +0.024 HD
ATOM     53  H   UNL     1     141.814 169.186 184.971  0.00  0.00    +0.024 HD
ATOM     54  H   UNL     1     140.109 168.742 184.803  0.00  0.00    +0.024 HD
ENDBRANCH   1  51
BRANCH  22  55
ATOM     55  C   UNL     1     143.184 169.740 187.727  0.00  0.00    -0.044 C 
ATOM     56  H   UNL     1     143.532 170.712 187.370  0.00  0.00    +0.027 HD
ATOM     57  H   UNL     1     143.781 169.488 188.610  0.00  0.00    +0.027 HD
ATOM     58  H   UNL     1     143.398 169.005 186.949  0.00  0.00    +0.027 HD
ENDBRANCH  22  55
BRANCH  20  59
ATOM     59  C   UNL     1     140.270 171.148 191.396  0.00  0.00    -0.054 C 
ATOM     60  H   UNL     1     140.239 170.804 192.436  0.00  0.00    +0.024 HD
ATOM     61  H   UNL     1     139.252 171.436 191.112  0.00  0.00    +0.024 HD
ATOM     62  H   UNL     1     140.899 172.044 191.353  0.00  0.00    +0.024 HD
ENDBRANCH  20  59
BRANCH  16  63
ATOM     63  C   UNL     1     142.323 165.797 191.818  0.00  0.00    -0.038 C 
ATOM     64  H   UNL     1     143.035 165.006 192.069  0.00  0.00    +0.025 HD
ATOM     65  H   UNL     1     141.751 166.041 192.720  0.00  0.00    +0.025 HD
ATOM     66  H   UNL     1     141.622 165.383 191.084  0.00  0.00    +0.025 HD
ENDBRANCH  16  63
BRANCH  13  67
ATOM     67  C   UNL     1     145.795 165.947 191.656  0.00  0.00    +0.004 C 
ATOM     68  H   UNL     1     146.332 165.005 191.749  0.00  0.00    +0.043 HD
ATOM     69  H   UNL     1     146.500 166.764 191.839  0.00  0.00    +0.043 HD
ATOM     70  H   UNL     1     145.008 165.975 192.412  0.00  0.00    +0.043 HD
ENDBRANCH  13  67
BRANCH   3  71
ATOM     71  C   UNL     1     139.377 164.425 185.708  0.00  0.00    -0.028 C 
ATOM     72  H   UNL     1     138.985 163.909 186.590  0.00  0.00    +0.027 HD
ATOM     73  H   UNL     1     139.665 163.671 184.970  0.00  0.00    +0.027 HD
ATOM     74  H   UNL     1     138.552 165.020 185.300  0.00  0.00    +0.027 HD
ENDBRANCH   3  71
BRANCH  12  75
ATOM     75  C   UNL     1     146.530 167.270 188.484  0.00  0.00    +0.003 C 
ATOM     76  H   UNL     1     145.654 167.817 188.118  0.00  0.00    +0.034 HD
ATOM     77  H   UNL     1     147.130 167.067 187.590  0.00  0.00    +0.034 HD
BRANCH  75  78
ATOM     78  C   UNL     1     147.329 168.170 189.390  0.00  0.00    -0.006 A 
ATOM     79  C   UNL     1     148.595 167.940 189.888  0.00  0.00    +0.087 A 
ATOM     80  N   UNL     1     148.972 168.997 190.661  0.00  0.00    -0.349 N 
ATOM     81  C   UNL     1     147.962 169.927 190.714  0.00  0.00    +0.048 A 
ATOM     82  C   UNL     1     147.894 171.147 191.398  0.00  0.00    -0.038 A 
ATOM     83  C   UNL     1     146.721 171.896 191.274  0.00  0.00    -0.060 A 
ATOM     84  C   UNL     1     145.663 171.443 190.493  0.00  0.00    -0.061 A 
ATOM     85  C   UNL     1     145.753 170.225 189.810  0.00  0.00    -0.052 A 
ATOM     86  C   UNL     1     146.921 169.442 189.919  0.00  0.00    +0.004 A 
ATOM     87 BR   UNL     1     149.692 166.415 189.590  0.00  0.00    -0.031 Br
ATOM     88  H   UNL     1     149.861 169.079 191.134  0.00  0.00    +0.166 HD
ATOM     89  H   UNL     1     148.718 171.504 192.008  0.00  0.00    +0.064 HD
ATOM     90  H   UNL     1     146.633 172.848 191.795  0.00  0.00    +0.062 HD
ATOM     91  H   UNL     1     144.752 172.034 190.408  0.00  0.00    +0.062 HD
ATOM     92  H   UNL     1     144.914 169.893 189.209  0.00  0.00    +0.062 HD
ENDBRANCH  75  78
ENDBRANCH  12  75
TORSDOF 10
ENDMDL
MODEL 9
REMARK VINA RESULT:      -6.1      1.451      2.324
REMARK  Name = Jasplakinolide_conf3
REMARK  10 active torsions:
REMARK  status: ('A' for Active; 'I' for Inactive)
REMARK    1  A    between atoms: C_1  and  C_2
REMARK    2  A    between atoms: C_4  and  C_47
REMARK    3  A    between atoms: C_9  and  C_40
REMARK    4  A    between atoms: C_13  and  C_29
REMARK    5  A    between atoms: N_14  and  C_28
REMARK    6  A    between atoms: C_17  and  C_27
REMARK    7  A    between atoms: C_21  and  C_26
REMARK    8  A    between atoms: C_23  and  C_25
REMARK    9  A    between atoms: C_29  and  C_30
REMARK   10  A    between atoms: C_43  and  O_46
REMARK                            x       y       z     vdW  Elec       q    Type
REMARK                         _______ _______ _______ _____ _____    ______ ____
ROOT
ATOM      1  C   UNL     1     151.115 166.814 190.755  0.00  0.00    -0.022 C 
ATOM      2  C   UNL     1     152.130 167.316 189.702  0.00  0.00    -0.010 C 
ATOM      3  C   UNL     1     152.440 166.260 188.626  0.00  0.00    +0.101 C 
ATOM      4  O   UNL     1     151.433 166.381 187.596  0.00  0.00    -0.462 OA
ATOM      5  C   UNL     1     151.213 165.279 186.825  0.00  0.00    +0.309 C 
ATOM      6  O   UNL     1     151.721 164.182 186.999  0.00  0.00    -0.251 OA
ATOM      7  C   UNL     1     150.363 165.644 185.636  0.00  0.00    +0.067 C 
ATOM      8  C   UNL     1     149.205 164.662 185.431  0.00  0.00    +0.058 C 
ATOM      9  N   UNL     1     148.027 165.092 186.170  0.00  0.00    -0.306 N 
ATOM     10  C   UNL     1     147.514 164.420 187.259  0.00  0.00    +0.234 C 
ATOM     11  O   UNL     1     147.952 163.334 187.630  0.00  0.00    -0.274 OA
ATOM     12  C   UNL     1     146.219 165.058 187.827  0.00  0.00    +0.106 C 
ATOM     13  N   UNL     1     146.172 166.537 187.628  0.00  0.00    -0.291 N 
ATOM     14  C   UNL     1     147.146 167.305 188.258  0.00  0.00    +0.236 C 
ATOM     15  O   UNL     1     148.133 166.766 188.770  0.00  0.00    -0.274 OA
ATOM     16  C   UNL     1     147.041 168.844 188.243  0.00  0.00    +0.097 C 
ATOM     17  N   UNL     1     147.855 169.348 189.349  0.00  0.00    -0.304 N 
ATOM     18  C   UNL     1     147.341 170.026 190.426  0.00  0.00    +0.217 C 
ATOM     19  O   UNL     1     146.149 170.296 190.536  0.00  0.00    -0.275 OA
ATOM     20  C   UNL     1     148.391 170.424 191.465  0.00  0.00    +0.036 C 
ATOM     21  C   UNL     1     148.613 169.309 192.505  0.00  0.00    -0.021 C 
ATOM     22  C   UNL     1     149.200 168.025 191.947  0.00  0.00    -0.076 C 
ATOM     23  C   UNL     1     150.451 167.992 191.442  0.00  0.00    -0.082 C 
ATOM     24  H   UNL     1     150.354 166.221 190.233  0.00  0.00    +0.034 HD
ATOM     25  H   UNL     1     153.051 167.616 190.217  0.00  0.00    +0.031 HD
ATOM     26  H   UNL     1     151.732 168.213 189.207  0.00  0.00    +0.031 HD
ATOM     27  H   UNL     1     152.435 165.253 189.058  0.00  0.00    +0.073 HD
ATOM     28  H   UNL     1     149.992 166.671 185.746  0.00  0.00    +0.040 HD
ATOM     29  H   UNL     1     151.049 165.644 184.778  0.00  0.00    +0.040 HD
ATOM     30  H   UNL     1     149.503 163.669 185.788  0.00  0.00    +0.055 HD
ATOM     31  H   UNL     1     147.553 165.939 185.885  0.00  0.00    +0.149 HD
ATOM     32  H   UNL     1     145.431 164.638 187.186  0.00  0.00    +0.060 HD
ATOM     33  H   UNL     1     146.003 169.149 188.398  0.00  0.00    +0.059 HD
ATOM     34  H   UNL     1     148.789 168.956 189.428  0.00  0.00    +0.149 HD
ATOM     35  H   UNL     1     149.331 170.638 190.938  0.00  0.00    +0.039 HD
ATOM     36  H   UNL     1     147.662 169.088 193.007  0.00  0.00    +0.032 HD
ATOM     37  H   UNL     1     149.286 169.672 193.294  0.00  0.00    +0.032 HD
ATOM     38  H   UNL     1     151.052 168.899 191.498  0.00  0.00    +0.057 HD
ENDROOT
BRANCH   8  39
ATOM     39  C   UNL     1     148.805 164.547 183.965  0.00  0.00    -0.026 A 
ATOM     40  C   UNL     1     147.628 163.893 183.562  0.00  0.00    -0.053 A 
ATOM     41  C   UNL     1     147.304 163.782 182.208  0.00  0.00    -0.020 A 
ATOM     42  C   UNL     1     148.157 164.314 181.250  0.00  0.00    +0.117 A 
ATOM     43  C   UNL     1     149.333 164.955 181.621  0.00  0.00    -0.020 A 
ATOM     44  C   UNL     1     149.658 165.066 182.976  0.00  0.00    -0.053 A 
ATOM     45  H   UNL     1     146.951 163.461 184.295  0.00  0.00    +0.062 HD
ATOM     46  H   UNL     1     146.391 163.281 181.902  0.00  0.00    +0.065 HD
ATOM     47  H   UNL     1     150.010 165.369 180.880  0.00  0.00    +0.065 HD
ATOM     48  H   UNL     1     150.587 165.559 183.259  0.00  0.00    +0.062 HD
BRANCH  42  49
ATOM     49  O   UNL     1     147.801 164.184 179.941  0.00  0.00    -0.507 OA
ATOM     50  H   UNL     1     147.869 163.246 179.695  0.00  0.00    +0.292 HD
ENDBRANCH  42  49
ENDBRANCH   8  39
BRANCH   1  51
ATOM     51  C   UNL     1     151.805 165.928 191.798  0.00  0.00    -0.059 C 
ATOM     52  H   UNL     1     152.276 165.057 191.326  0.00  0.00    +0.024 HD
ATOM     53  H   UNL     1     151.092 165.557 192.543  0.00  0.00    +0.024 HD
ATOM     54  H   UNL     1     152.590 166.475 192.328  0.00  0.00    +0.024 HD
ENDBRANCH   1  51
BRANCH  22  55
ATOM     55  C   UNL     1     148.282 166.832 192.025  0.00  0.00    -0.044 C 
ATOM     56  H   UNL     1     147.419 166.897 191.359  0.00  0.00    +0.027 HD
ATOM     57  H   UNL     1     148.830 165.924 191.754  0.00  0.00    +0.027 HD
ATOM     58  H   UNL     1     147.908 166.714 193.043  0.00  0.00    +0.027 HD
ENDBRANCH  22  55
BRANCH  20  59
ATOM     59  C   UNL     1     147.957 171.711 192.169  0.00  0.00    -0.054 C 
ATOM     60  H   UNL     1     147.812 172.530 191.455  0.00  0.00    +0.024 HD
ATOM     61  H   UNL     1     148.714 172.033 192.892  0.00  0.00    +0.024 HD
ATOM     62  H   UNL     1     147.016 171.560 192.709  0.00  0.00    +0.024 HD
ENDBRANCH  20  59
BRANCH  16  63
ATOM     63  C   UNL     1     147.582 169.388 186.926  0.00  0.00    -0.038 C 
ATOM     64  H   UNL     1     147.726 168.596 186.185  0.00  0.00    +0.025 HD
ATOM     65  H   UNL     1     146.897 170.130 186.504  0.00  0.00    +0.025 HD
ATOM     66  H   UNL     1     148.553 169.877 187.070  0.00  0.00    +0.025 HD
ENDBRANCH  16  63
BRANCH  13  67
ATOM     67  C   UNL     1     144.994 167.062 186.948  0.00  0.00    +0.004 C 
ATOM     68  H   UNL     1     145.209 167.422 185.944  0.00  0.00    +0.043 HD
ATOM     69  H   UNL     1     144.252 166.262 186.875  0.00  0.00    +0.043 HD
ATOM     70  H   UNL     1     144.577 167.886 187.531  0.00  0.00    +0.043 HD
ENDBRANCH  13  67
BRANCH   3  71
ATOM     71  C   UNL     1     153.800 166.540 187.988  0.00  0.00    -0.028 C 
ATOM     72  H   UNL     1     153.963 167.617 187.873  0.00  0.00    +0.027 HD
ATOM     73  H   UNL     1     153.877 166.075 187.001  0.00  0.00    +0.027 HD
ATOM     74  H   UNL     1     154.612 166.166 188.620  0.00  0.00    +0.027 HD
ENDBRANCH   3  71
BRANCH  12  75
ATOM     75  C   UNL     1     145.952 164.616 189.282  0.00  0.00    +0.003 C 
ATOM     76  H   UNL     1     146.014 165.466 189.970  0.00  0.00    +0.034 HD
ATOM     77  H   UNL     1     146.729 163.921 189.621  0.00  0.00    +0.034 HD
BRANCH  75  78
ATOM     78  C   UNL     1     144.615 163.942 189.451  0.00  0.00    -0.006 A 
ATOM     79  C   UNL     1     143.435 164.522 189.868  0.00  0.00    +0.087 A 
ATOM     80  N   UNL     1     142.451 163.579 189.881  0.00  0.00    -0.349 N 
ATOM     81  C   UNL     1     142.961 162.360 189.505  0.00  0.00    +0.048 A 
ATOM     82  C   UNL     1     142.332 161.114 189.398  0.00  0.00    -0.038 A 
ATOM     83  C   UNL     1     143.111 160.027 188.992  0.00  0.00    -0.060 A 
ATOM     84  C   UNL     1     144.462 160.184 188.701  0.00  0.00    -0.061 A 
ATOM     85  C   UNL     1     145.071 161.439 188.807  0.00  0.00    -0.052 A 
ATOM     86  C   UNL     1     144.314 162.556 189.220  0.00  0.00    +0.004 A 
ATOM     87 BR   UNL     1     143.155 166.337 190.364  0.00  0.00    -0.031 Br
ATOM     88  H   UNL     1     141.491 163.751 190.140  0.00  0.00    +0.166 HD
ATOM     89  H   UNL     1     141.278 160.987 189.622  0.00  0.00    +0.064 HD
ATOM     90  H   UNL     1     142.655 159.043 188.900  0.00  0.00    +0.062 HD
ATOM     91  H   UNL     1     145.059 159.328 188.391  0.00  0.00    +0.062 HD
ATOM     92  H   UNL     1     146.126 161.536 188.577  0.00  0.00    +0.062 HD
ENDBRANCH  75  78
ENDBRANCH  12  75
TORSDOF 10
ENDMDL
MODEL 10
REMARK VINA RESULT:      -6.1      4.776      9.934
REMARK  Name = Jasplakinolide_conf3
REMARK  10 active torsions:
REMARK  status: ('A' for Active; 'I' for Inactive)
REMARK    1  A    between atoms: C_1  and  C_2
REMARK    2  A    between atoms: C_4  and  C_47
REMARK    3  A    between atoms: C_9  and  C_40
REMARK    4  A    between atoms: C_13  and  C_29
REMARK    5  A    between atoms: N_14  and  C_28
REMARK    6  A    between atoms: C_17  and  C_27
REMARK    7  A    between atoms: C_21  and  C_26
REMARK    8  A    between atoms: C_23  and  C_25
REMARK    9  A    between atoms: C_29  and  C_30
REMARK   10  A    between atoms: C_43  and  O_46
REMARK                            x       y       z     vdW  Elec       q    Type
REMARK                         _______ _______ _______ _____ _____    ______ ____
ROOT
ATOM      1  C   UNL     1     140.464 167.576 186.164  0.00  0.00    -0.022 C 
ATOM      2  C   UNL     1     139.495 168.766 185.979  0.00  0.00    -0.010 C 
ATOM      3  C   UNL     1     138.806 169.179 187.291  0.00  0.00    +0.101 C 
ATOM      4  O   UNL     1     139.684 170.104 187.970  0.00  0.00    -0.462 OA
ATOM      5  C   UNL     1     139.527 170.216 189.320  0.00  0.00    +0.309 C 
ATOM      6  O   UNL     1     138.782 169.531 190.004  0.00  0.00    -0.251 OA
ATOM      7  C   UNL     1     140.299 171.405 189.831  0.00  0.00    +0.067 C 
ATOM      8  C   UNL     1     141.139 171.061 191.064  0.00  0.00    +0.058 C 
ATOM      9  N   UNL     1     142.465 170.603 190.675  0.00  0.00    -0.306 N 
ATOM     10  C   UNL     1     142.914 169.310 190.844  0.00  0.00    +0.234 C 
ATOM     11  O   UNL     1     142.261 168.459 191.442  0.00  0.00    -0.274 OA
ATOM     12  C   UNL     1     144.385 169.102 190.397  0.00  0.00    +0.106 C 
ATOM     13  N   UNL     1     144.781 170.011 189.282  0.00  0.00    -0.291 N 
ATOM     14  C   UNL     1     144.113 169.875 188.069  0.00  0.00    +0.236 C 
ATOM     15  O   UNL     1     143.087 169.190 187.993  0.00  0.00    -0.274 OA
ATOM     16  C   UNL     1     144.601 170.654 186.830  0.00  0.00    +0.097 C 
ATOM     17  N   UNL     1     144.074 169.970 185.650  0.00  0.00    -0.304 N 
ATOM     18  C   UNL     1     144.864 169.361 184.705  0.00  0.00    +0.217 C 
ATOM     19  O   UNL     1     146.090 169.368 184.758  0.00  0.00    -0.275 OA
ATOM     20  C   UNL     1     144.075 168.688 183.580  0.00  0.00    +0.036 C 
ATOM     21  C   UNL     1     143.700 167.237 183.937  0.00  0.00    -0.021 C 
ATOM     22  C   UNL     1     142.748 167.095 185.110  0.00  0.00    -0.076 C 
ATOM     23  C   UNL     1     141.479 167.550 185.037  0.00  0.00    -0.082 C 
ATOM     24  H   UNL     1     140.984 167.711 187.119  0.00  0.00    +0.034 HD
ATOM     25  H   UNL     1     138.745 168.494 185.224  0.00  0.00    +0.031 HD
ATOM     26  H   UNL     1     140.046 169.632 185.586  0.00  0.00    +0.031 HD
ATOM     27  H   UNL     1     138.605 168.303 187.917  0.00  0.00    +0.073 HD
ATOM     28  H   UNL     1     140.928 171.812 189.029  0.00  0.00    +0.040 HD
ATOM     29  H   UNL     1     139.540 172.166 190.058  0.00  0.00    +0.040 HD
ATOM     30  H   UNL     1     140.643 170.264 191.632  0.00  0.00    +0.055 HD
ATOM     31  H   UNL     1     143.102 171.259 190.243  0.00  0.00    +0.149 HD
ATOM     32  H   UNL     1     144.961 169.426 191.276  0.00  0.00    +0.060 HD
ATOM     33  H   UNL     1     145.693 170.643 186.789  0.00  0.00    +0.059 HD
ATOM     34  H   UNL     1     143.087 169.731 185.677  0.00  0.00    +0.149 HD
ATOM     35  H   UNL     1     143.167 169.277 183.398  0.00  0.00    +0.039 HD
ATOM     36  H   UNL     1     144.616 166.666 184.139  0.00  0.00    +0.032 HD
ATOM     37  H   UNL     1     143.237 166.753 183.065  0.00  0.00    +0.032 HD
ATOM     38  H   UNL     1     141.138 167.971 184.091  0.00  0.00    +0.057 HD
ENDROOT
BRANCH   8  39
ATOM     39  C   UNL     1     141.325 172.262 191.983  0.00  0.00    -0.026 A 
ATOM     40  C   UNL     1     140.459 172.517 193.062  0.00  0.00    -0.053 A 
ATOM     41  C   UNL     1     140.641 173.642 193.868  0.00  0.00    -0.020 A 
ATOM     42  C   UNL     1     141.681 174.522 193.599  0.00  0.00    +0.117 A 
ATOM     43  C   UNL     1     142.543 174.300 192.532  0.00  0.00    -0.020 A 
ATOM     44  C   UNL     1     142.361 173.175 191.724  0.00  0.00    -0.053 A 
ATOM     45  H   UNL     1     139.634 171.845 193.285  0.00  0.00    +0.062 HD
ATOM     46  H   UNL     1     139.974 173.832 194.704  0.00  0.00    +0.065 HD
ATOM     47  H   UNL     1     143.355 174.985 192.309  0.00  0.00    +0.065 HD
ATOM     48  H   UNL     1     143.033 173.013 190.881  0.00  0.00    +0.062 HD
BRANCH  42  49
ATOM     49  O   UNL     1     141.822 175.606 194.413  0.00  0.00    -0.507 OA
ATOM     50  H   UNL     1     142.770 175.757 194.566  0.00  0.00    +0.292 HD
ENDBRANCH  42  49
ENDBRANCH   8  39
BRANCH   1  51
ATOM     51  C   UNL     1     139.698 166.249 186.200  0.00  0.00    -0.059 C 
ATOM     52  H   UNL     1     140.386 165.396 186.189  0.00  0.00    +0.024 HD
ATOM     53  H   UNL     1     139.030 166.148 185.337  0.00  0.00    +0.024 HD
ATOM     54  H   UNL     1     139.090 166.166 187.106  0.00  0.00    +0.024 HD
ENDBRANCH   1  51
BRANCH  22  55
ATOM     55  C   UNL     1     143.336 166.408 186.314  0.00  0.00    -0.044 C 
ATOM     56  H   UNL     1     143.778 165.434 186.093  0.00  0.00    +0.027 HD
ATOM     57  H   UNL     1     144.127 167.029 186.748  0.00  0.00    +0.027 HD
ATOM     58  H   UNL     1     142.566 166.258 187.073  0.00  0.00    +0.027 HD
ENDBRANCH  22  55
BRANCH  20  59
ATOM     59  C   UNL     1     144.900 168.710 182.291  0.00  0.00    -0.054 C 
ATOM     60  H   UNL     1     145.089 169.735 181.952  0.00  0.00    +0.024 HD
ATOM     61  H   UNL     1     144.373 168.186 181.485  0.00  0.00    +0.024 HD
ATOM     62  H   UNL     1     145.866 168.216 182.439  0.00  0.00    +0.024 HD
ENDBRANCH  20  59
BRANCH  16  63
ATOM     63  C   UNL     1     144.066 172.080 186.870  0.00  0.00    -0.038 C 
ATOM     64  H   UNL     1     144.690 172.767 186.290  0.00  0.00    +0.025 HD
ATOM     65  H   UNL     1     143.048 172.123 186.469  0.00  0.00    +0.025 HD
ATOM     66  H   UNL     1     144.034 172.462 187.897  0.00  0.00    +0.025 HD
ENDBRANCH  16  63
BRANCH  13  67
ATOM     67  C   UNL     1     145.966 170.830 189.503  0.00  0.00    +0.004 C 
ATOM     68  H   UNL     1     145.873 171.489 190.365  0.00  0.00    +0.043 HD
ATOM     69  H   UNL     1     146.819 170.165 189.670  0.00  0.00    +0.043 HD
ATOM     70  H   UNL     1     146.154 171.440 188.617  0.00  0.00    +0.043 HD
ENDBRANCH  13  67
BRANCH   3  71
ATOM     71  C   UNL     1     137.496 169.909 186.993  0.00  0.00    -0.028 C 
ATOM     72  H   UNL     1     137.647 170.691 186.241  0.00  0.00    +0.027 HD
ATOM     73  H   UNL     1     137.088 170.375 187.895  0.00  0.00    +0.027 HD
ATOM     74  H   UNL     1     136.749 169.220 186.583  0.00  0.00    +0.027 HD
ENDBRANCH   3  71
BRANCH  12  75
ATOM     75  C   UNL     1     144.697 167.614 190.130  0.00  0.00    +0.003 C 
ATOM     76  H   UNL     1     144.984 167.453 189.085  0.00  0.00    +0.034 HD
ATOM     77  H   UNL     1     143.800 167.000 190.274  0.00  0.00    +0.034 HD
BRANCH  75  78
ATOM     78  C   UNL     1     145.781 167.075 191.028  0.00  0.00    -0.006 A 
ATOM     79  C   UNL     1     147.138 167.062 190.782  0.00  0.00    +0.087 A 
ATOM     80  N   UNL     1     147.781 166.497 191.842  0.00  0.00    -0.349 N 
ATOM     81  C   UNL     1     146.870 166.101 192.790  0.00  0.00    +0.048 A 
ATOM     82  C   UNL     1     147.068 165.462 194.020  0.00  0.00    -0.038 A 
ATOM     83  C   UNL     1     145.938 165.169 194.789  0.00  0.00    -0.060 A 
ATOM     84  C   UNL     1     144.664 165.508 194.345  0.00  0.00    -0.061 A 
ATOM     85  C   UNL     1     144.487 166.153 193.116  0.00  0.00    -0.052 A 
ATOM     86  C   UNL     1     145.606 166.458 192.314  0.00  0.00    +0.004 A 
ATOM     87 BR   UNL     1     148.035 167.706 189.233  0.00  0.00    -0.031 Br
ATOM     88  H   UNL     1     148.781 166.378 191.914  0.00  0.00    +0.166 HD
ATOM     89  H   UNL     1     148.060 165.197 194.371  0.00  0.00    +0.064 HD
ATOM     90  H   UNL     1     146.055 164.670 195.749  0.00  0.00    +0.062 HD
ATOM     91  H   UNL     1     143.791 165.269 194.951  0.00  0.00    +0.062 HD
ATOM     92  H   UNL     1     143.483 166.405 192.791  0.00  0.00    +0.062 HD
ENDBRANCH  75  78
ENDBRANCH  12  75
TORSDOF 10
ENDMDL
