MODEL 1
REMARK VINA RESULT:      -7.3      0.000      0.000
REMARK  Name = Jasplakinolide_conf2
REMARK  10 active torsions:
REMARK  status: ('A' for Active; 'I' for Inactive)
REMARK    1  A    between atoms: C_1  and  C_2
REMARK    2  A    between atoms: C_4  and  C_47
REMARK    3  A    between atoms: C_9  and  C_40
REMARK    4  A    between atoms: C_13  and  C_29
REMARK    5  A    between atoms: N_14  and  C_28
REMARK    6  A    between atoms: C_17  and  C_27
REMARK    7  A    between atoms: C_21  and  C_26
REMARK    8  A    between atoms: C_23  and  C_25
REMARK    9  A    between atoms: C_29  and  C_30
REMARK   10  A    between atoms: C_43  and  O_46
REMARK                            x       y       z     vdW  Elec       q    Type
REMARK                         _______ _______ _______ _____ _____    ______ ____
ROOT
ATOM      1  C   UNL     1     143.480 162.403 186.803  0.00  0.00    -0.022 C 
ATOM      2  C   UNL     1     144.351 162.551 188.063  0.00  0.00    -0.010 C 
ATOM      3  C   UNL     1     145.324 163.745 188.037  0.00  0.00    +0.101 C 
ATOM      4  O   UNL     1     145.835 163.877 189.383  0.00  0.00    -0.462 OA
ATOM      5  C   UNL     1     146.318 165.106 189.722  0.00  0.00    +0.309 C 
ATOM      6  O   UNL     1     146.417 166.054 188.956  0.00  0.00    -0.251 OA
ATOM      7  C   UNL     1     146.626 165.131 191.200  0.00  0.00    +0.067 C 
ATOM      8  C   UNL     1     147.576 166.274 191.574  0.00  0.00    +0.058 C 
ATOM      9  N   UNL     1     146.972 167.577 191.360  0.00  0.00    -0.306 N 
ATOM     10  C   UNL     1     147.711 168.680 190.978  0.00  0.00    +0.234 C 
ATOM     11  O   UNL     1     148.937 168.691 190.911  0.00  0.00    -0.274 OA
ATOM     12  C   UNL     1     146.830 169.854 190.519  0.00  0.00    +0.106 C 
ATOM     13  N   UNL     1     146.263 169.494 189.192  0.00  0.00    -0.291 N 
ATOM     14  C   UNL     1     144.979 168.949 189.165  0.00  0.00    +0.236 C 
ATOM     15  O   UNL     1     144.361 168.705 190.212  0.00  0.00    -0.274 OA
ATOM     16  C   UNL     1     144.315 168.673 187.795  0.00  0.00    +0.097 C 
ATOM     17  N   UNL     1     143.090 167.904 188.029  0.00  0.00    -0.304 N 
ATOM     18  C   UNL     1     142.480 167.163 187.044  0.00  0.00    +0.217 C 
ATOM     19  O   UNL     1     142.941 167.056 185.911  0.00  0.00    -0.275 OA
ATOM     20  C   UNL     1     141.135 166.578 187.462  0.00  0.00    +0.036 C 
ATOM     21  C   UNL     1     140.793 165.304 186.669  0.00  0.00    -0.021 C 
ATOM     22  C   UNL     1     141.518 164.066 187.182  0.00  0.00    -0.076 C 
ATOM     23  C   UNL     1     142.609 163.611 186.531  0.00  0.00    -0.082 C 
ATOM     24  H   UNL     1     144.155 162.323 185.941  0.00  0.00    +0.034 HD
ATOM     25  H   UNL     1     144.929 161.628 188.222  0.00  0.00    +0.031 HD
ATOM     26  H   UNL     1     143.717 162.638 188.954  0.00  0.00    +0.031 HD
ATOM     27  H   UNL     1     144.784 164.659 187.766  0.00  0.00    +0.073 HD
ATOM     28  H   UNL     1     147.092 164.172 191.467  0.00  0.00    +0.040 HD
ATOM     29  H   UNL     1     145.670 165.210 191.730  0.00  0.00    +0.040 HD
ATOM     30  H   UNL     1     148.449 166.208 190.910  0.00  0.00    +0.055 HD
ATOM     31  H   UNL     1     145.958 167.665 191.343  0.00  0.00    +0.149 HD
ATOM     32  H   UNL     1     146.009 169.922 191.243  0.00  0.00    +0.060 HD
ATOM     33  H   UNL     1     144.974 168.061 187.172  0.00  0.00    +0.059 HD
ATOM     34  H   UNL     1     142.745 167.892 188.981  0.00  0.00    +0.149 HD
ATOM     35  H   UNL     1     141.158 166.362 188.536  0.00  0.00    +0.039 HD
ATOM     36  H   UNL     1     139.714 165.106 186.723  0.00  0.00    +0.032 HD
ATOM     37  H   UNL     1     141.003 165.448 185.599  0.00  0.00    +0.032 HD
ATOM     38  H   UNL     1     142.946 164.187 185.664  0.00  0.00    +0.057 HD
ENDROOT
BRANCH   8  39
ATOM     39  C   UNL     1     148.051 166.163 193.014  0.00  0.00    -0.026 A 
ATOM     40  C   UNL     1     147.174 166.328 194.100  0.00  0.00    -0.053 A 
ATOM     41  C   UNL     1     147.638 166.219 195.412  0.00  0.00    -0.020 A 
ATOM     42  C   UNL     1     148.981 165.962 195.649  0.00  0.00    +0.117 A 
ATOM     43  C   UNL     1     149.875 165.816 194.594  0.00  0.00    -0.020 A 
ATOM     44  C   UNL     1     149.410 165.921 193.282  0.00  0.00    -0.053 A 
ATOM     45  H   UNL     1     146.123 166.552 193.938  0.00  0.00    +0.062 HD
ATOM     46  H   UNL     1     146.954 166.343 196.246  0.00  0.00    +0.065 HD
ATOM     47  H   UNL     1     150.930 165.631 194.770  0.00  0.00    +0.065 HD
ATOM     48  H   UNL     1     150.119 165.829 192.460  0.00  0.00    +0.062 HD
BRANCH  42  49
ATOM     49  O   UNL     1     149.390 165.870 196.947  0.00  0.00    -0.507 OA
ATOM     50  H   UNL     1     150.206 165.342 196.973  0.00  0.00    +0.292 HD
ENDBRANCH  42  49
ENDBRANCH   8  39
BRANCH   1  51
ATOM     51  C   UNL     1     142.694 161.089 186.813  0.00  0.00    -0.059 C 
ATOM     52  H   UNL     1     141.625 161.237 186.650  0.00  0.00    +0.024 HD
ATOM     53  H   UNL     1     142.804 160.590 187.782  0.00  0.00    +0.024 HD
ATOM     54  H   UNL     1     143.066 160.402 186.044  0.00  0.00    +0.024 HD
ENDBRANCH   1  51
BRANCH  22  55
ATOM     55  C   UNL     1     140.890 163.436 188.396  0.00  0.00    -0.044 C 
ATOM     56  H   UNL     1     141.512 163.601 189.284  0.00  0.00    +0.027 HD
ATOM     57  H   UNL     1     139.910 163.884 188.584  0.00  0.00    +0.027 HD
ATOM     58  H   UNL     1     140.762 162.358 188.310  0.00  0.00    +0.027 HD
ENDBRANCH  22  55
BRANCH  20  59
ATOM     59  C   UNL     1     140.071 167.653 187.220  0.00  0.00    -0.054 C 
ATOM     60  H   UNL     1     140.233 168.513 187.877  0.00  0.00    +0.024 HD
ATOM     61  H   UNL     1     139.063 167.264 187.403  0.00  0.00    +0.024 HD
ATOM     62  H   UNL     1     140.099 168.013 186.186  0.00  0.00    +0.024 HD
ENDBRANCH  20  59
BRANCH  16  63
ATOM     63  C   UNL     1     143.969 169.994 187.109  0.00  0.00    -0.038 C 
ATOM     64  H   UNL     1     143.978 170.837 187.807  0.00  0.00    +0.025 HD
ATOM     65  H   UNL     1     142.966 169.952 186.667  0.00  0.00    +0.025 HD
ATOM     66  H   UNL     1     144.676 170.216 186.303  0.00  0.00    +0.025 HD
ENDBRANCH  16  63
BRANCH  13  67
ATOM     67  C   UNL     1     147.196 169.322 188.079  0.00  0.00    +0.004 C 
ATOM     68  H   UNL     1     146.822 169.758 187.152  0.00  0.00    +0.043 HD
ATOM     69  H   UNL     1     147.345 168.252 187.909  0.00  0.00    +0.043 HD
ATOM     70  H   UNL     1     148.155 169.785 188.300  0.00  0.00    +0.043 HD
ENDBRANCH  13  67
BRANCH   3  71
ATOM     71  C   UNL     1     146.491 163.514 187.077  0.00  0.00    -0.028 C 
ATOM     72  H   UNL     1     147.263 164.280 187.187  0.00  0.00    +0.027 HD
ATOM     73  H   UNL     1     146.145 163.507 186.038  0.00  0.00    +0.027 HD
ATOM     74  H   UNL     1     146.957 162.540 187.254  0.00  0.00    +0.027 HD
ENDBRANCH   3  71
BRANCH  12  75
ATOM     75  C   UNL     1     147.588 171.193 190.563  0.00  0.00    +0.003 C 
ATOM     76  H   UNL     1     147.740 171.607 189.560  0.00  0.00    +0.034 HD
ATOM     77  H   UNL     1     148.601 171.024 190.950  0.00  0.00    +0.034 HD
BRANCH  75  78
ATOM     78  C   UNL     1     146.905 172.208 191.443  0.00  0.00    -0.006 A 
ATOM     79  C   UNL     1     147.460 172.909 192.495  0.00  0.00    +0.087 A 
ATOM     80  N   UNL     1     146.505 173.697 193.064  0.00  0.00    -0.349 N 
ATOM     81  C   UNL     1     145.313 173.548 192.397  0.00  0.00    +0.048 A 
ATOM     82  C   UNL     1     144.069 174.150 192.630  0.00  0.00    -0.038 A 
ATOM     83  C   UNL     1     143.019 173.821 191.773  0.00  0.00    -0.060 A 
ATOM     84  C   UNL     1     143.205 172.927 190.724  0.00  0.00    -0.061 A 
ATOM     85  C   UNL     1     144.454 172.332 190.506  0.00  0.00    -0.052 A 
ATOM     86  C   UNL     1     145.534 172.636 191.362  0.00  0.00    +0.004 A 
ATOM     87 BR   UNL     1     149.256 172.825 193.120  0.00  0.00    -0.031 Br
ATOM     88  H   UNL     1     146.656 174.301 193.858  0.00  0.00    +0.166 HD
ATOM     89  H   UNL     1     143.920 174.852 193.445  0.00  0.00    +0.064 HD
ATOM     90  H   UNL     1     142.041 174.274 191.925  0.00  0.00    +0.062 HD
ATOM     91  H   UNL     1     142.375 172.688 190.063  0.00  0.00    +0.062 HD
ATOM     92  H   UNL     1     144.583 171.649 189.674  0.00  0.00    +0.062 HD
ENDBRANCH  75  78
ENDBRANCH  12  75
TORSDOF 10
ENDMDL
MODEL 2
REMARK VINA RESULT:      -7.3      5.083      9.166
REMARK  Name = Jasplakinolide_conf2
REMARK  10 active torsions:
REMARK  status: ('A' for Active; 'I' for Inactive)
REMARK    1  A    between atoms: C_1  and  C_2
REMARK    2  A    between atoms: C_4  and  C_47
REMARK    3  A    between atoms: C_9  and  C_40
REMARK    4  A    between atoms: C_13  and  C_29
REMARK    5  A    between atoms: N_14  and  C_28
REMARK    6  A    between atoms: C_17  and  C_27
REMARK    7  A    between atoms: C_21  and  C_26
REMARK    8  A    between atoms: C_23  and  C_25
REMARK    9  A    between atoms: C_29  and  C_30
REMARK   10  A    between atoms: C_43  and  O_46
REMARK                            x       y       z     vdW  Elec       q    Type
REMARK                         _______ _______ _______ _____ _____    ______ ____
ROOT
ATOM      1  C   UNL     1     154.883 162.368 186.681  0.00  0.00    -0.022 C 
ATOM      2  C   UNL     1     153.748 163.139 185.983  0.00  0.00    -0.010 C 
ATOM      3  C   UNL     1     152.521 163.421 186.870  0.00  0.00    +0.101 C 
ATOM      4  O   UNL     1     151.708 164.371 186.143  0.00  0.00    -0.462 OA
ATOM      5  C   UNL     1     150.850 165.120 186.891  0.00  0.00    +0.309 C 
ATOM      6  O   UNL     1     150.672 164.987 188.093  0.00  0.00    -0.251 OA
ATOM      7  C   UNL     1     150.228 166.185 186.019  0.00  0.00    +0.067 C 
ATOM      8  C   UNL     1     148.948 166.761 186.634  0.00  0.00    +0.058 C 
ATOM      9  N   UNL     1     149.210 167.482 187.866  0.00  0.00    -0.306 N 
ATOM     10  C   UNL     1     148.305 167.515 188.910  0.00  0.00    +0.234 C 
ATOM     11  O   UNL     1     147.167 167.058 188.842  0.00  0.00    -0.274 OA
ATOM     12  C   UNL     1     148.916 168.070 190.208  0.00  0.00    +0.106 C 
ATOM     13  N   UNL     1     149.838 167.033 190.745  0.00  0.00    -0.291 N 
ATOM     14  C   UNL     1     151.194 167.155 190.442  0.00  0.00    +0.236 C 
ATOM     15  O   UNL     1     151.608 168.053 189.693  0.00  0.00    -0.274 OA
ATOM     16  C   UNL     1     152.193 166.162 191.081  0.00  0.00    +0.097 C 
ATOM     17  N   UNL     1     153.497 166.351 190.440  0.00  0.00    -0.304 N 
ATOM     18  C   UNL     1     154.486 165.396 190.474  0.00  0.00    +0.217 C 
ATOM     19  O   UNL     1     154.332 164.299 191.005  0.00  0.00    -0.275 OA
ATOM     20  C   UNL     1     155.812 165.866 189.885  0.00  0.00    +0.036 C 
ATOM     21  C   UNL     1     156.650 164.691 189.352  0.00  0.00    -0.021 C 
ATOM     22  C   UNL     1     156.191 164.197 187.985  0.00  0.00    -0.076 C 
ATOM     23  C   UNL     1     155.434 163.083 187.896  0.00  0.00    -0.082 C 
ATOM     24  H   UNL     1     154.462 161.426 187.055  0.00  0.00    +0.034 HD
ATOM     25  H   UNL     1     153.419 162.584 185.091  0.00  0.00    +0.031 HD
ATOM     26  H   UNL     1     154.122 164.094 185.593  0.00  0.00    +0.031 HD
ATOM     27  H   UNL     1     152.840 163.871 187.816  0.00  0.00    +0.073 HD
ATOM     28  H   UNL     1     149.991 165.733 185.047  0.00  0.00    +0.040 HD
ATOM     29  H   UNL     1     150.986 166.961 185.864  0.00  0.00    +0.040 HD
ATOM     30  H   UNL     1     148.293 165.915 186.886  0.00  0.00    +0.055 HD
ATOM     31  H   UNL     1     150.141 167.854 188.044  0.00  0.00    +0.149 HD
ATOM     32  H   UNL     1     149.507 168.946 189.918  0.00  0.00    +0.060 HD
ATOM     33  H   UNL     1     151.878 165.133 190.889  0.00  0.00    +0.059 HD
ATOM     34  H   UNL     1     153.613 167.205 189.907  0.00  0.00    +0.149 HD
ATOM     35  H   UNL     1     155.611 166.584 189.082  0.00  0.00    +0.039 HD
ATOM     36  H   UNL     1     157.703 164.990 189.262  0.00  0.00    +0.032 HD
ATOM     37  H   UNL     1     156.651 163.859 190.073  0.00  0.00    +0.032 HD
ATOM     38  H   UNL     1     155.155 162.596 188.835  0.00  0.00    +0.057 HD
ENDROOT
BRANCH   8  39
ATOM     39  C   UNL     1     148.214 167.668 185.659  0.00  0.00    -0.026 A 
ATOM     40  C   UNL     1     148.265 169.069 185.768  0.00  0.00    -0.053 A 
ATOM     41  C   UNL     1     147.582 169.877 184.858  0.00  0.00    -0.020 A 
ATOM     42  C   UNL     1     146.831 169.295 183.846  0.00  0.00    +0.117 A 
ATOM     43  C   UNL     1     146.746 167.913 183.729  0.00  0.00    -0.020 A 
ATOM     44  C   UNL     1     147.433 167.104 184.637  0.00  0.00    -0.053 A 
ATOM     45  H   UNL     1     148.828 169.546 186.565  0.00  0.00    +0.062 HD
ATOM     46  H   UNL     1     147.629 170.959 184.944  0.00  0.00    +0.065 HD
ATOM     47  H   UNL     1     146.149 167.448 182.951  0.00  0.00    +0.065 HD
ATOM     48  H   UNL     1     147.342 166.021 184.554  0.00  0.00    +0.062 HD
BRANCH  42  49
ATOM     49  O   UNL     1     146.177 170.125 182.983  0.00  0.00    -0.507 OA
ATOM     50  H   UNL     1     145.840 169.592 182.243  0.00  0.00    +0.292 HD
ENDBRANCH  42  49
ENDBRANCH   8  39
BRANCH   1  51
ATOM     51  C   UNL     1     155.971 161.948 185.689  0.00  0.00    -0.059 C 
ATOM     52  H   UNL     1     156.969 162.264 186.000  0.00  0.00    +0.024 HD
ATOM     53  H   UNL     1     155.785 162.400 184.709  0.00  0.00    +0.024 HD
ATOM     54  H   UNL     1     155.982 160.860 185.555  0.00  0.00    +0.024 HD
ENDBRANCH   1  51
BRANCH  22  55
ATOM     55  C   UNL     1     156.680 165.025 186.828  0.00  0.00    -0.044 C 
ATOM     56  H   UNL     1     155.850 165.565 186.360  0.00  0.00    +0.027 HD
ATOM     57  H   UNL     1     157.407 165.764 187.180  0.00  0.00    +0.027 HD
ATOM     58  H   UNL     1     157.147 164.437 186.039  0.00  0.00    +0.027 HD
ENDBRANCH  22  55
BRANCH  20  59
ATOM     59  C   UNL     1     156.573 166.599 190.994  0.00  0.00    -0.054 C 
ATOM     60  H   UNL     1     157.592 166.213 191.086  0.00  0.00    +0.024 HD
ATOM     61  H   UNL     1     156.072 166.485 191.963  0.00  0.00    +0.024 HD
ATOM     62  H   UNL     1     156.640 167.672 190.787  0.00  0.00    +0.024 HD
ENDBRANCH  20  59
BRANCH  16  63
ATOM     63  C   UNL     1     152.314 166.437 192.579  0.00  0.00    -0.038 C 
ATOM     64  H   UNL     1     151.373 166.259 193.110  0.00  0.00    +0.025 HD
ATOM     65  H   UNL     1     152.595 167.481 192.762  0.00  0.00    +0.025 HD
ATOM     66  H   UNL     1     153.082 165.804 193.035  0.00  0.00    +0.025 HD
ENDBRANCH  16  63
BRANCH  13  67
ATOM     67  C   UNL     1     149.255 165.760 191.168  0.00  0.00    +0.004 C 
ATOM     68  H   UNL     1     150.011 165.047 191.497  0.00  0.00    +0.043 HD
ATOM     69  H   UNL     1     148.726 165.318 190.319  0.00  0.00    +0.043 HD
ATOM     70  H   UNL     1     148.556 165.905 191.988  0.00  0.00    +0.043 HD
ENDBRANCH  13  67
BRANCH   3  71
ATOM     71  C   UNL     1     151.701 162.158 187.133  0.00  0.00    -0.028 C 
ATOM     72  H   UNL     1     152.321 161.257 187.095  0.00  0.00    +0.027 HD
ATOM     73  H   UNL     1     150.891 162.059 186.402  0.00  0.00    +0.027 HD
ATOM     74  H   UNL     1     151.226 162.196 188.118  0.00  0.00    +0.027 HD
ENDBRANCH   3  71
BRANCH  12  75
ATOM     75  C   UNL     1     147.835 168.555 191.191  0.00  0.00    +0.003 C 
ATOM     76  H   UNL     1     148.064 168.264 192.223  0.00  0.00    +0.034 HD
ATOM     77  H   UNL     1     146.887 168.051 190.964  0.00  0.00    +0.034 HD
BRANCH  75  78
ATOM     78  C   UNL     1     147.615 170.043 191.110  0.00  0.00    -0.006 A 
ATOM     79  C   UNL     1     146.706 170.711 190.314  0.00  0.00    +0.087 A 
ATOM     80  N   UNL     1     146.847 172.053 190.500  0.00  0.00    -0.349 N 
ATOM     81  C   UNL     1     147.832 172.301 191.425  0.00  0.00    +0.048 A 
ATOM     82  C   UNL     1     148.319 173.518 191.919  0.00  0.00    -0.038 A 
ATOM     83  C   UNL     1     149.330 173.470 192.880  0.00  0.00    -0.060 A 
ATOM     84  C   UNL     1     149.832 172.253 193.330  0.00  0.00    -0.061 A 
ATOM     85  C   UNL     1     149.336 171.045 192.823  0.00  0.00    -0.052 A 
ATOM     86  C   UNL     1     148.322 171.060 191.842  0.00  0.00    +0.004 A 
ATOM     87 BR   UNL     1     145.442 169.947 189.114  0.00  0.00    -0.031 Br
ATOM     88  H   UNL     1     146.304 172.760 190.025  0.00  0.00    +0.166 HD
ATOM     89  H   UNL     1     147.927 174.470 191.574  0.00  0.00    +0.064 HD
ATOM     90  H   UNL     1     149.727 174.398 193.286  0.00  0.00    +0.062 HD
ATOM     91  H   UNL     1     150.615 172.237 194.084  0.00  0.00    +0.062 HD
ATOM     92  H   UNL     1     149.731 170.107 193.197  0.00  0.00    +0.062 HD
ENDBRANCH  75  78
ENDBRANCH  12  75
TORSDOF 10
ENDMDL
MODEL 3
REMARK VINA RESULT:      -6.9      1.807      2.671
REMARK  Name = Jasplakinolide_conf2
REMARK  10 active torsions:
REMARK  status: ('A' for Active; 'I' for Inactive)
REMARK    1  A    between atoms: C_1  and  C_2
REMARK    2  A    between atoms: C_4  and  C_47
REMARK    3  A    between atoms: C_9  and  C_40
REMARK    4  A    between atoms: C_13  and  C_29
REMARK    5  A    between atoms: N_14  and  C_28
REMARK    6  A    between atoms: C_17  and  C_27
REMARK    7  A    between atoms: C_21  and  C_26
REMARK    8  A    between atoms: C_23  and  C_25
REMARK    9  A    between atoms: C_29  and  C_30
REMARK   10  A    between atoms: C_43  and  O_46
REMARK                            x       y       z     vdW  Elec       q    Type
REMARK                         _______ _______ _______ _____ _____    ______ ____
ROOT
ATOM      1  C   UNL     1     141.951 162.103 185.864  0.00  0.00    -0.022 C 
ATOM      2  C   UNL     1     142.795 162.243 187.143  0.00  0.00    -0.010 C 
ATOM      3  C   UNL     1     143.902 163.312 187.072  0.00  0.00    +0.101 C 
ATOM      4  O   UNL     1     144.384 163.484 188.424  0.00  0.00    -0.462 OA
ATOM      5  C   UNL     1     144.997 164.671 188.694  0.00  0.00    +0.309 C 
ATOM      6  O   UNL     1     145.230 165.542 187.868  0.00  0.00    -0.251 OA
ATOM      7  C   UNL     1     145.261 164.770 190.178  0.00  0.00    +0.067 C 
ATOM      8  C   UNL     1     146.326 165.821 190.507  0.00  0.00    +0.058 C 
ATOM      9  N   UNL     1     145.886 167.165 190.180  0.00  0.00    -0.306 N 
ATOM     10  C   UNL     1     146.761 168.145 189.749  0.00  0.00    +0.234 C 
ATOM     11  O   UNL     1     147.981 168.009 189.730  0.00  0.00    -0.274 OA
ATOM     12  C   UNL     1     146.039 169.375 189.175  0.00  0.00    +0.106 C 
ATOM     13  N   UNL     1     145.474 168.985 187.855  0.00  0.00    -0.291 N 
ATOM     14  C   UNL     1     144.137 168.590 187.817  0.00  0.00    +0.236 C 
ATOM     15  O   UNL     1     143.462 168.498 188.854  0.00  0.00    -0.274 OA
ATOM     16  C   UNL     1     143.487 168.291 186.445  0.00  0.00    +0.097 C 
ATOM     17  N   UNL     1     142.173 167.688 186.684  0.00  0.00    -0.304 N 
ATOM     18  C   UNL     1     141.511 166.950 185.731  0.00  0.00    +0.217 C 
ATOM     19  O   UNL     1     141.991 166.707 184.627  0.00  0.00    -0.275 OA
ATOM     20  C   UNL     1     140.094 166.557 186.137  0.00  0.00    +0.036 C 
ATOM     21  C   UNL     1     139.629 165.275 185.423  0.00  0.00    -0.021 C 
ATOM     22  C   UNL     1     140.188 164.003 186.049  0.00  0.00    -0.076 C 
ATOM     23  C   UNL     1     141.237 163.379 185.474  0.00  0.00    -0.082 C 
ATOM     24  H   UNL     1     142.639 161.882 185.037  0.00  0.00    +0.034 HD
ATOM     25  H   UNL     1     143.256 161.274 187.389  0.00  0.00    +0.031 HD
ATOM     26  H   UNL     1     142.149 162.468 188.001  0.00  0.00    +0.031 HD
ATOM     27  H   UNL     1     143.481 164.259 186.716  0.00  0.00    +0.073 HD
ATOM     28  H   UNL     1     145.602 163.787 190.529  0.00  0.00    +0.040 HD
ATOM     29  H   UNL     1     144.305 164.997 190.663  0.00  0.00    +0.040 HD
ATOM     30  H   UNL     1     147.205 165.607 189.884  0.00  0.00    +0.055 HD
ATOM     31  H   UNL     1     144.891 167.368 190.116  0.00  0.00    +0.149 HD
ATOM     32  H   UNL     1     145.210 169.591 189.860  0.00  0.00    +0.060 HD
ATOM     33  H   UNL     1     144.087 167.563 185.893  0.00  0.00    +0.059 HD
ATOM     34  H   UNL     1     141.800 167.787 187.621  0.00  0.00    +0.149 HD
ATOM     35  H   UNL     1     140.059 166.421 187.223  0.00  0.00    +0.039 HD
ATOM     36  H   UNL     1     138.534 165.207 185.448  0.00  0.00    +0.032 HD
ATOM     37  H   UNL     1     139.887 165.314 184.354  0.00  0.00    +0.032 HD
ATOM     38  H   UNL     1     141.665 163.847 184.583  0.00  0.00    +0.057 HD
ENDROOT
BRANCH   8  39
ATOM     39  C   UNL     1     146.741 165.763 191.969  0.00  0.00    -0.026 A 
ATOM     40  C   UNL     1     148.092 165.767 192.358  0.00  0.00    -0.053 A 
ATOM     41  C   UNL     1     148.443 165.713 193.707  0.00  0.00    -0.020 A 
ATOM     42  C   UNL     1     147.452 165.640 194.676  0.00  0.00    +0.117 A 
ATOM     43  C   UNL     1     146.109 165.613 194.319  0.00  0.00    -0.020 A 
ATOM     44  C   UNL     1     145.757 165.671 192.968  0.00  0.00    -0.053 A 
ATOM     45  H   UNL     1     148.885 165.801 191.616  0.00  0.00    +0.062 HD
ATOM     46  H   UNL     1     149.489 165.721 194.002  0.00  0.00    +0.065 HD
ATOM     47  H   UNL     1     145.327 165.539 195.068  0.00  0.00    +0.065 HD
ATOM     48  H   UNL     1     144.704 165.625 192.694  0.00  0.00    +0.062 HD
BRANCH  42  49
ATOM     49  O   UNL     1     147.842 165.584 195.982  0.00  0.00    -0.507 OA
ATOM     50  H   UNL     1     147.733 166.468 196.371  0.00  0.00    +0.292 HD
ENDBRANCH  42  49
ENDBRANCH   8  39
BRANCH   1  51
ATOM     51  C   UNL     1     141.017 160.892 185.936  0.00  0.00    -0.059 C 
ATOM     52  H   UNL     1     141.464 160.046 186.461  0.00  0.00    +0.024 HD
ATOM     53  H   UNL     1     140.765 160.547 184.928  0.00  0.00    +0.024 HD
ATOM     54  H   UNL     1     140.078 161.150 186.441  0.00  0.00    +0.024 HD
ENDBRANCH   1  51
BRANCH  22  55
ATOM     55  C   UNL     1     139.454 163.542 187.279  0.00  0.00    -0.044 C 
ATOM     56  H   UNL     1     139.553 162.458 187.405  0.00  0.00    +0.027 HD
ATOM     57  H   UNL     1     139.874 164.024 188.167  0.00  0.00    +0.027 HD
ATOM     58  H   UNL     1     138.385 163.750 187.252  0.00  0.00    +0.027 HD
ENDBRANCH  22  55
BRANCH  20  59
ATOM     59  C   UNL     1     139.172 167.726 185.778  0.00  0.00    -0.054 C 
ATOM     60  H   UNL     1     138.297 167.746 186.434  0.00  0.00    +0.024 HD
ATOM     61  H   UNL     1     138.824 167.656 184.741  0.00  0.00    +0.024 HD
ATOM     62  H   UNL     1     139.689 168.686 185.884  0.00  0.00    +0.024 HD
ENDBRANCH  20  59
BRANCH  16  63
ATOM     63  C   UNL     1     143.319 169.589 185.655  0.00  0.00    -0.038 C 
ATOM     64  H   UNL     1     144.249 169.902 185.172  0.00  0.00    +0.025 HD
ATOM     65  H   UNL     1     143.005 170.408 186.314  0.00  0.00    +0.025 HD
ATOM     66  H   UNL     1     142.555 169.480 184.878  0.00  0.00    +0.025 HD
ENDBRANCH  16  63
BRANCH  13  67
ATOM     67  C   UNL     1     146.414 168.624 186.795  0.00  0.00    +0.004 C 
ATOM     68  H   UNL     1     147.133 169.418 186.590  0.00  0.00    +0.043 HD
ATOM     69  H   UNL     1     145.851 168.439 185.876  0.00  0.00    +0.043 HD
ATOM     70  H   UNL     1     146.973 167.730 187.058  0.00  0.00    +0.043 HD
ENDBRANCH  13  67
BRANCH   3  71
ATOM     71  C   UNL     1     145.062 162.877 186.177  0.00  0.00    -0.028 C 
ATOM     72  H   UNL     1     145.099 161.790 186.060  0.00  0.00    +0.027 HD
ATOM     73  H   UNL     1     146.019 163.220 186.585  0.00  0.00    +0.027 HD
ATOM     74  H   UNL     1     144.976 163.318 185.179  0.00  0.00    +0.027 HD
ENDBRANCH   3  71
BRANCH  12  75
ATOM     75  C   UNL     1     146.947 170.618 189.155  0.00  0.00    +0.003 C 
ATOM     76  H   UNL     1     146.732 171.264 188.296  0.00  0.00    +0.034 HD
ATOM     77  H   UNL     1     147.988 170.303 189.012  0.00  0.00    +0.034 HD
BRANCH  75  78
ATOM     78  C   UNL     1     146.860 171.411 190.433  0.00  0.00    -0.006 A 
ATOM     79  C   UNL     1     145.773 172.124 190.900  0.00  0.00    +0.087 A 
ATOM     80  N   UNL     1     146.108 172.737 192.070  0.00  0.00    -0.349 N 
ATOM     81  C   UNL     1     147.406 172.434 192.407  0.00  0.00    +0.048 A 
ATOM     82  C   UNL     1     148.169 172.841 193.510  0.00  0.00    -0.038 A 
ATOM     83  C   UNL     1     149.475 172.360 193.607  0.00  0.00    -0.060 A 
ATOM     84  C   UNL     1     149.996 171.505 192.642  0.00  0.00    -0.061 A 
ATOM     85  C   UNL     1     149.221 171.110 191.544  0.00  0.00    -0.052 A 
ATOM     86  C   UNL     1     147.900 171.588 191.410  0.00  0.00    +0.004 A 
ATOM     87 BR   UNL     1     144.060 172.284 190.088  0.00  0.00    -0.031 Br
ATOM     88  H   UNL     1     145.490 173.327 192.608  0.00  0.00    +0.166 HD
ATOM     89  H   UNL     1     147.764 173.505 194.268  0.00  0.00    +0.064 HD
ATOM     90  H   UNL     1     150.092 172.655 194.453  0.00  0.00    +0.062 HD
ATOM     91  H   UNL     1     151.015 171.136 192.739  0.00  0.00    +0.062 HD
ATOM     92  H   UNL     1     149.641 170.432 190.810  0.00  0.00    +0.062 HD
ENDBRANCH  75  78
ENDBRANCH  12  75
TORSDOF 10
ENDMDL
MODEL 4
REMARK VINA RESULT:      -6.9      3.712      7.561
REMARK  Name = Jasplakinolide_conf2
REMARK  10 active torsions:
REMARK  status: ('A' for Active; 'I' for Inactive)
REMARK    1  A    between atoms: C_1  and  C_2
REMARK    2  A    between atoms: C_4  and  C_47
REMARK    3  A    between atoms: C_9  and  C_40
REMARK    4  A    between atoms: C_13  and  C_29
REMARK    5  A    between atoms: N_14  and  C_28
REMARK    6  A    between atoms: C_17  and  C_27
REMARK    7  A    between atoms: C_21  and  C_26
REMARK    8  A    between atoms: C_23  and  C_25
REMARK    9  A    between atoms: C_29  and  C_30
REMARK   10  A    between atoms: C_43  and  O_46
REMARK                            x       y       z     vdW  Elec       q    Type
REMARK                         _______ _______ _______ _____ _____    ______ ____
ROOT
ATOM      1  C   UNL     1     145.043 174.021 182.911  0.00  0.00    -0.022 C 
ATOM      2  C   UNL     1     145.565 174.139 184.354  0.00  0.00    -0.010 C 
ATOM      3  C   UNL     1     144.772 173.325 185.394  0.00  0.00    +0.101 C 
ATOM      4  O   UNL     1     145.562 173.340 186.605  0.00  0.00    -0.462 OA
ATOM      5  C   UNL     1     145.326 172.328 187.486  0.00  0.00    +0.309 C 
ATOM      6  O   UNL     1     144.457 171.478 187.357  0.00  0.00    -0.251 OA
ATOM      7  C   UNL     1     146.356 172.376 188.589  0.00  0.00    +0.067 C 
ATOM      8  C   UNL     1     145.912 171.595 189.831  0.00  0.00    +0.058 C 
ATOM      9  N   UNL     1     145.803 170.171 189.569  0.00  0.00    -0.306 N 
ATOM     10  C   UNL     1     144.865 169.374 190.198  0.00  0.00    +0.234 C 
ATOM     11  O   UNL     1     144.141 169.762 191.110  0.00  0.00    -0.274 OA
ATOM     12  C   UNL     1     144.734 167.986 189.547  0.00  0.00    +0.106 C 
ATOM     13  N   UNL     1     144.036 168.168 188.246  0.00  0.00    -0.291 N 
ATOM     14  C   UNL     1     144.823 168.270 187.099  0.00  0.00    +0.236 C 
ATOM     15  O   UNL     1     146.062 168.280 187.167  0.00  0.00    -0.274 OA
ATOM     16  C   UNL     1     144.126 168.342 185.720  0.00  0.00    +0.097 C 
ATOM     17  N   UNL     1     145.139 168.668 184.713  0.00  0.00    -0.304 N 
ATOM     18  C   UNL     1     144.820 169.191 183.482  0.00  0.00    +0.217 C 
ATOM     19  O   UNL     1     143.668 169.463 183.154  0.00  0.00    -0.275 OA
ATOM     20  C   UNL     1     146.011 169.301 182.536  0.00  0.00    +0.036 C 
ATOM     21  C   UNL     1     145.810 170.411 181.488  0.00  0.00    -0.021 C 
ATOM     22  C   UNL     1     146.084 171.807 182.034  0.00  0.00    -0.076 C 
ATOM     23  C   UNL     1     145.052 172.603 182.385  0.00  0.00    -0.082 C 
ATOM     24  H   UNL     1     143.990 174.332 182.913  0.00  0.00    +0.034 HD
ATOM     25  H   UNL     1     145.566 175.197 184.660  0.00  0.00    +0.031 HD
ATOM     26  H   UNL     1     146.617 173.835 184.403  0.00  0.00    +0.031 HD
ATOM     27  H   UNL     1     144.660 172.291 185.050  0.00  0.00    +0.073 HD
ATOM     28  H   UNL     1     146.514 173.429 188.862  0.00  0.00    +0.040 HD
ATOM     29  H   UNL     1     147.292 171.982 188.178  0.00  0.00    +0.040 HD
ATOM     30  H   UNL     1     144.909 171.952 190.104  0.00  0.00    +0.055 HD
ATOM     31  H   UNL     1     146.323 169.760 188.796  0.00  0.00    +0.149 HD
ATOM     32  H   UNL     1     145.756 167.643 189.350  0.00  0.00    +0.060 HD
ATOM     33  H   UNL     1     143.384 169.146 185.713  0.00  0.00    +0.059 HD
ATOM     34  H   UNL     1     146.104 168.550 184.996  0.00  0.00    +0.149 HD
ATOM     35  H   UNL     1     146.916 169.492 183.123  0.00  0.00    +0.039 HD
ATOM     36  H   UNL     1     146.482 170.248 180.635  0.00  0.00    +0.032 HD
ATOM     37  H   UNL     1     144.795 170.362 181.066  0.00  0.00    +0.032 HD
ATOM     38  H   UNL     1     144.046 172.182 182.288  0.00  0.00    +0.057 HD
ENDROOT
BRANCH   8  39
ATOM     39  C   UNL     1     146.848 171.827 191.007  0.00  0.00    -0.026 A 
ATOM     40  C   UNL     1     146.695 172.925 191.871  0.00  0.00    -0.053 A 
ATOM     41  C   UNL     1     147.569 173.112 192.943  0.00  0.00    -0.020 A 
ATOM     42  C   UNL     1     148.609 172.217 193.150  0.00  0.00    +0.117 A 
ATOM     43  C   UNL     1     148.795 171.134 192.298  0.00  0.00    -0.020 A 
ATOM     44  C   UNL     1     147.919 170.944 191.228  0.00  0.00    -0.053 A 
ATOM     45  H   UNL     1     145.902 173.651 191.714  0.00  0.00    +0.062 HD
ATOM     46  H   UNL     1     147.443 173.960 193.610  0.00  0.00    +0.065 HD
ATOM     47  H   UNL     1     149.615 170.437 192.442  0.00  0.00    +0.065 HD
ATOM     48  H   UNL     1     148.085 170.107 190.550  0.00  0.00    +0.062 HD
BRANCH  42  49
ATOM     49  O   UNL     1     149.441 172.443 194.207  0.00  0.00    -0.507 OA
ATOM     50  H   UNL     1     149.301 173.353 194.516  0.00  0.00    +0.292 HD
ENDBRANCH  42  49
ENDBRANCH   8  39
BRANCH   1  51
ATOM     51  C   UNL     1     145.746 175.010 181.976  0.00  0.00    -0.059 C 
ATOM     52  H   UNL     1     146.093 174.543 181.053  0.00  0.00    +0.024 HD
ATOM     53  H   UNL     1     146.626 175.437 182.469  0.00  0.00    +0.024 HD
ATOM     54  H   UNL     1     145.081 175.841 181.711  0.00  0.00    +0.024 HD
ENDBRANCH   1  51
BRANCH  22  55
ATOM     55  C   UNL     1     147.541 172.177 182.094  0.00  0.00    -0.044 C 
ATOM     56  H   UNL     1     148.150 171.436 181.563  0.00  0.00    +0.027 HD
ATOM     57  H   UNL     1     147.699 173.148 181.616  0.00  0.00    +0.027 HD
ATOM     58  H   UNL     1     147.936 172.227 183.108  0.00  0.00    +0.027 HD
ENDBRANCH  22  55
BRANCH  20  59
ATOM     59  C   UNL     1     146.176 167.944 181.844  0.00  0.00    -0.054 C 
ATOM     60  H   UNL     1     145.732 167.146 182.446  0.00  0.00    +0.024 HD
ATOM     61  H   UNL     1     147.233 167.706 181.681  0.00  0.00    +0.024 HD
ATOM     62  H   UNL     1     145.685 167.936 180.865  0.00  0.00    +0.024 HD
ENDBRANCH  20  59
BRANCH  16  63
ATOM     63  C   UNL     1     143.489 166.993 185.388  0.00  0.00    -0.038 C 
ATOM     64  H   UNL     1     142.510 166.871 185.860  0.00  0.00    +0.025 HD
ATOM     65  H   UNL     1     144.121 166.168 185.737  0.00  0.00    +0.025 HD
ATOM     66  H   UNL     1     143.359 166.875 184.307  0.00  0.00    +0.025 HD
ENDBRANCH  16  63
BRANCH  13  67
ATOM     67  C   UNL     1     142.657 168.655 188.278  0.00  0.00    +0.004 C 
ATOM     68  H   UNL     1     142.590 169.726 188.087  0.00  0.00    +0.043 HD
ATOM     69  H   UNL     1     142.242 168.466 189.272  0.00  0.00    +0.043 HD
ATOM     70  H   UNL     1     142.047 168.146 187.535  0.00  0.00    +0.043 HD
ENDBRANCH  13  67
BRANCH   3  71
ATOM     71  C   UNL     1     143.402 173.940 185.681  0.00  0.00    -0.028 C 
ATOM     72  H   UNL     1     143.486 174.978 186.017  0.00  0.00    +0.027 HD
ATOM     73  H   UNL     1     142.868 173.364 186.445  0.00  0.00    +0.027 HD
ATOM     74  H   UNL     1     142.771 173.928 184.788  0.00  0.00    +0.027 HD
ENDBRANCH   3  71
BRANCH  12  75
ATOM     75  C   UNL     1     144.086 166.964 190.498  0.00  0.00    +0.003 C 
ATOM     76  H   UNL     1     143.925 165.997 190.007  0.00  0.00    +0.034 HD
ATOM     77  H   UNL     1     143.080 167.309 190.770  0.00  0.00    +0.034 HD
BRANCH  75  78
ATOM     78  C   UNL     1     144.883 166.775 191.762  0.00  0.00    -0.006 A 
ATOM     79  C   UNL     1     144.394 166.670 193.050  0.00  0.00    +0.087 A 
ATOM     80  N   UNL     1     145.438 166.550 193.918  0.00  0.00    -0.349 N 
ATOM     81  C   UNL     1     146.627 166.558 193.230  0.00  0.00    +0.048 A 
ATOM     82  C   UNL     1     147.943 166.466 193.704  0.00  0.00    -0.038 A 
ATOM     83  C   UNL     1     148.973 166.485 192.764  0.00  0.00    -0.060 A 
ATOM     84  C   UNL     1     148.699 166.589 191.404  0.00  0.00    -0.061 A 
ATOM     85  C   UNL     1     147.378 166.683 190.947  0.00  0.00    -0.052 A 
ATOM     86  C   UNL     1     146.314 166.678 191.873  0.00  0.00    +0.004 A 
ATOM     87 BR   UNL     1     142.573 166.697 193.600  0.00  0.00    -0.031 Br
ATOM     88  H   UNL     1     145.345 166.467 194.920  0.00  0.00    +0.166 HD
ATOM     89  H   UNL     1     148.161 166.379 194.764  0.00  0.00    +0.064 HD
ATOM     90  H   UNL     1     150.006 166.411 193.099  0.00  0.00    +0.062 HD
ATOM     91  H   UNL     1     149.516 166.596 190.686  0.00  0.00    +0.062 HD
ATOM     92  H   UNL     1     147.185 166.749 189.882  0.00  0.00    +0.062 HD
ENDBRANCH  75  78
ENDBRANCH  12  75
TORSDOF 10
ENDMDL
MODEL 5
REMARK VINA RESULT:      -6.9      3.483      6.657
REMARK  Name = Jasplakinolide_conf2
REMARK  10 active torsions:
REMARK  status: ('A' for Active; 'I' for Inactive)
REMARK    1  A    between atoms: C_1  and  C_2
REMARK    2  A    between atoms: C_4  and  C_47
REMARK    3  A    between atoms: C_9  and  C_40
REMARK    4  A    between atoms: C_13  and  C_29
REMARK    5  A    between atoms: N_14  and  C_28
REMARK    6  A    between atoms: C_17  and  C_27
REMARK    7  A    between atoms: C_21  and  C_26
REMARK    8  A    between atoms: C_23  and  C_25
REMARK    9  A    between atoms: C_29  and  C_30
REMARK   10  A    between atoms: C_43  and  O_46
REMARK                            x       y       z     vdW  Elec       q    Type
REMARK                         _______ _______ _______ _____ _____    ______ ____
ROOT
ATOM      1  C   UNL     1     140.736 170.998 188.200  0.00  0.00    -0.022 C 
ATOM      2  C   UNL     1     141.260 170.199 189.407  0.00  0.00    -0.010 C 
ATOM      3  C   UNL     1     142.240 169.064 189.052  0.00  0.00    +0.101 C 
ATOM      4  O   UNL     1     142.821 168.628 190.302  0.00  0.00    -0.462 OA
ATOM      5  C   UNL     1     144.025 167.996 190.214  0.00  0.00    +0.309 C 
ATOM      6  O   UNL     1     144.591 167.712 189.167  0.00  0.00    -0.251 OA
ATOM      7  C   UNL     1     144.581 167.785 191.602  0.00  0.00    +0.067 C 
ATOM      8  C   UNL     1     145.671 166.707 191.631  0.00  0.00    +0.058 C 
ATOM      9  N   UNL     1     146.849 167.102 190.881  0.00  0.00    -0.306 N 
ATOM     10  C   UNL     1     147.634 166.187 190.204  0.00  0.00    +0.234 C 
ATOM     11  O   UNL     1     147.485 164.971 190.280  0.00  0.00    -0.274 OA
ATOM     12  C   UNL     1     148.631 166.858 189.244  0.00  0.00    +0.106 C 
ATOM     13  N   UNL     1     147.854 167.383 188.089  0.00  0.00    -0.291 N 
ATOM     14  C   UNL     1     147.482 168.727 188.119  0.00  0.00    +0.236 C 
ATOM     15  O   UNL     1     147.728 169.441 189.103  0.00  0.00    -0.274 OA
ATOM     16  C   UNL     1     146.776 169.333 186.883  0.00  0.00    +0.097 C 
ATOM     17  N   UNL     1     146.294 170.669 187.242  0.00  0.00    -0.304 N 
ATOM     18  C   UNL     1     145.303 171.314 186.540  0.00  0.00    +0.217 C 
ATOM     19  O   UNL     1     144.720 170.799 185.589  0.00  0.00    -0.275 OA
ATOM     20  C   UNL     1     145.073 172.754 186.987  0.00  0.00    +0.036 C 
ATOM     21  C   UNL     1     143.638 173.223 186.691  0.00  0.00    -0.021 C 
ATOM     22  C   UNL     1     142.620 172.720 187.707  0.00  0.00    -0.076 C 
ATOM     23  C   UNL     1     141.834 171.665 187.401  0.00  0.00    -0.082 C 
ATOM     24  H   UNL     1     140.259 170.286 187.514  0.00  0.00    +0.034 HD
ATOM     25  H   UNL     1     140.412 169.771 189.963  0.00  0.00    +0.031 HD
ATOM     26  H   UNL     1     141.750 170.870 190.122  0.00  0.00    +0.031 HD
ATOM     27  H   UNL     1     143.033 169.447 188.401  0.00  0.00    +0.073 HD
ATOM     28  H   UNL     1     143.754 167.481 192.257  0.00  0.00    +0.040 HD
ATOM     29  H   UNL     1     144.961 168.752 191.951  0.00  0.00    +0.040 HD
ATOM     30  H   UNL     1     145.261 165.811 191.145  0.00  0.00    +0.055 HD
ATOM     31  H   UNL     1     147.033 168.089 190.715  0.00  0.00    +0.149 HD
ATOM     32  H   UNL     1     149.060 167.705 189.791  0.00  0.00    +0.060 HD
ATOM     33  H   UNL     1     145.905 168.730 186.612  0.00  0.00    +0.059 HD
ATOM     34  H   UNL     1     146.686 171.074 188.084  0.00  0.00    +0.149 HD
ATOM     35  H   UNL     1     145.284 172.832 188.060  0.00  0.00    +0.039 HD
ATOM     36  H   UNL     1     143.594 174.320 186.689  0.00  0.00    +0.032 HD
ATOM     37  H   UNL     1     143.337 172.925 185.675  0.00  0.00    +0.032 HD
ATOM     38  H   UNL     1     141.994 171.193 186.428  0.00  0.00    +0.057 HD
ENDROOT
BRANCH   8  39
ATOM     39  C   UNL     1     146.069 166.348 193.054  0.00  0.00    -0.026 A 
ATOM     40  C   UNL     1     145.323 165.441 193.827  0.00  0.00    -0.053 A 
ATOM     41  C   UNL     1     145.712 165.130 195.131  0.00  0.00    -0.020 A 
ATOM     42  C   UNL     1     146.837 165.732 195.677  0.00  0.00    +0.117 A 
ATOM     43  C   UNL     1     147.580 166.649 194.943  0.00  0.00    -0.020 A 
ATOM     44  C   UNL     1     147.193 166.958 193.637  0.00  0.00    -0.053 A 
ATOM     45  H   UNL     1     144.426 164.975 193.427  0.00  0.00    +0.062 HD
ATOM     46  H   UNL     1     145.134 164.425 195.721  0.00  0.00    +0.065 HD
ATOM     47  H   UNL     1     148.452 167.138 195.367  0.00  0.00    +0.065 HD
ATOM     48  H   UNL     1     147.766 167.695 193.076  0.00  0.00    +0.062 HD
BRANCH  42  49
ATOM     49  O   UNL     1     147.177 165.402 196.956  0.00  0.00    -0.507 OA
ATOM     50  H   UNL     1     146.367 165.390 197.494  0.00  0.00    +0.292 HD
ENDBRANCH  42  49
ENDBRANCH   8  39
BRANCH   1  51
ATOM     51  C   UNL     1     139.620 171.964 188.607  0.00  0.00    -0.059 C 
ATOM     52  H   UNL     1     139.651 172.219 189.668  0.00  0.00    +0.024 HD
ATOM     53  H   UNL     1     138.640 171.514 188.414  0.00  0.00    +0.024 HD
ATOM     54  H   UNL     1     139.676 172.894 188.030  0.00  0.00    +0.024 HD
ENDBRANCH   1  51
BRANCH  22  55
ATOM     55  C   UNL     1     142.575 173.510 188.987  0.00  0.00    -0.044 C 
ATOM     56  H   UNL     1     141.816 173.105 189.665  0.00  0.00    +0.027 HD
ATOM     57  H   UNL     1     143.544 173.453 189.493  0.00  0.00    +0.027 HD
ATOM     58  H   UNL     1     142.327 174.560 188.841  0.00  0.00    +0.027 HD
ENDBRANCH  22  55
BRANCH  20  59
ATOM     59  C   UNL     1     146.082 173.633 186.242  0.00  0.00    -0.054 C 
ATOM     60  H   UNL     1     146.465 174.422 186.895  0.00  0.00    +0.024 HD
ATOM     61  H   UNL     1     145.627 174.104 185.363  0.00  0.00    +0.024 HD
ATOM     62  H   UNL     1     146.937 173.045 185.891  0.00  0.00    +0.024 HD
ENDBRANCH  20  59
BRANCH  16  63
ATOM     63  C   UNL     1     147.763 169.440 185.721  0.00  0.00    -0.038 C 
ATOM     64  H   UNL     1     147.365 170.035 184.894  0.00  0.00    +0.025 HD
ATOM     65  H   UNL     1     148.000 168.447 185.319  0.00  0.00    +0.025 HD
ATOM     66  H   UNL     1     148.703 169.899 186.044  0.00  0.00    +0.025 HD
ENDBRANCH  16  63
BRANCH  13  67
ATOM     67  C   UNL     1     147.168 166.413 187.236  0.00  0.00    +0.004 C 
ATOM     68  H   UNL     1     146.093 166.389 187.416  0.00  0.00    +0.043 HD
ATOM     69  H   UNL     1     147.565 165.417 187.448  0.00  0.00    +0.043 HD
ATOM     70  H   UNL     1     147.322 166.643 186.184  0.00  0.00    +0.043 HD
ENDBRANCH  13  67
BRANCH   3  71
ATOM     71  C   UNL     1     141.533 167.882 188.388  0.00  0.00    -0.028 C 
ATOM     72  H   UNL     1     142.241 167.107 188.082  0.00  0.00    +0.027 HD
ATOM     73  H   UNL     1     140.967 168.210 187.509  0.00  0.00    +0.027 HD
ATOM     74  H   UNL     1     140.809 167.425 189.069  0.00  0.00    +0.027 HD
ENDBRANCH   3  71
BRANCH  12  75
ATOM     75  C   UNL     1     149.794 165.919 188.875  0.00  0.00    +0.003 C 
ATOM     76  H   UNL     1     149.987 165.916 187.796  0.00  0.00    +0.034 HD
ATOM     77  H   UNL     1     149.512 164.884 189.109  0.00  0.00    +0.034 HD
BRANCH  75  78
ATOM     78  C   UNL     1     151.057 166.251 189.626  0.00  0.00    -0.006 A 
ATOM     79  C   UNL     1     152.265 166.653 189.091  0.00  0.00    +0.087 A 
ATOM     80  N   UNL     1     153.170 166.814 190.097  0.00  0.00    -0.349 N 
ATOM     81  C   UNL     1     152.583 166.539 191.308  0.00  0.00    +0.048 A 
ATOM     82  C   UNL     1     153.127 166.567 192.600  0.00  0.00    -0.038 A 
ATOM     83  C   UNL     1     152.283 166.252 193.665  0.00  0.00    -0.060 A 
ATOM     84  C   UNL     1     150.949 165.924 193.448  0.00  0.00    -0.061 A 
ATOM     85  C   UNL     1     150.422 165.898 192.150  0.00  0.00    -0.052 A 
ATOM     86  C   UNL     1     151.252 166.201 191.050  0.00  0.00    +0.004 A 
ATOM     87 BR   UNL     1     152.677 166.941 187.256  0.00  0.00    -0.031 Br
ATOM     88  H   UNL     1     154.131 167.095 189.966  0.00  0.00    +0.166 HD
ATOM     89  H   UNL     1     154.167 166.826 192.774  0.00  0.00    +0.064 HD
ATOM     90  H   UNL     1     152.674 166.267 194.680  0.00  0.00    +0.062 HD
ATOM     91  H   UNL     1     150.305 165.687 194.292  0.00  0.00    +0.062 HD
ATOM     92  H   UNL     1     149.375 165.654 192.003  0.00  0.00    +0.062 HD
ENDBRANCH  75  78
ENDBRANCH  12  75
TORSDOF 10
ENDMDL
MODEL 6
REMARK VINA RESULT:      -6.8      3.609      7.714
REMARK  Name = Jasplakinolide_conf2
REMARK  10 active torsions:
REMARK  status: ('A' for Active; 'I' for Inactive)
REMARK    1  A    between atoms: C_1  and  C_2
REMARK    2  A    between atoms: C_4  and  C_47
REMARK    3  A    between atoms: C_9  and  C_40
REMARK    4  A    between atoms: C_13  and  C_29
REMARK    5  A    between atoms: N_14  and  C_28
REMARK    6  A    between atoms: C_17  and  C_27
REMARK    7  A    between atoms: C_21  and  C_26
REMARK    8  A    between atoms: C_23  and  C_25
REMARK    9  A    between atoms: C_29  and  C_30
REMARK   10  A    between atoms: C_43  and  O_46
REMARK                            x       y       z     vdW  Elec       q    Type
REMARK                         _______ _______ _______ _____ _____    ______ ____
ROOT
ATOM      1  C   UNL     1     143.776 174.676 183.824  0.00  0.00    -0.022 C 
ATOM      2  C   UNL     1     144.427 174.673 185.218  0.00  0.00    -0.010 C 
ATOM      3  C   UNL     1     144.024 173.487 186.115  0.00  0.00    +0.101 C 
ATOM      4  O   UNL     1     144.930 173.508 187.242  0.00  0.00    -0.462 OA
ATOM      5  C   UNL     1     145.090 172.327 187.902  0.00  0.00    +0.309 C 
ATOM      6  O   UNL     1     144.474 171.300 187.658  0.00  0.00    -0.251 OA
ATOM      7  C   UNL     1     146.203 172.468 188.914  0.00  0.00    +0.067 C 
ATOM      8  C   UNL     1     146.149 171.377 189.989  0.00  0.00    +0.058 C 
ATOM      9  N   UNL     1     146.395 170.057 189.439  0.00  0.00    -0.306 N 
ATOM     10  C   UNL     1     145.796 168.920 189.949  0.00  0.00    +0.234 C 
ATOM     11  O   UNL     1     145.118 168.907 190.972  0.00  0.00    -0.274 OA
ATOM     12  C   UNL     1     145.961 167.699 189.029  0.00  0.00    +0.106 C 
ATOM     13  N   UNL     1     145.078 167.906 187.850  0.00  0.00    -0.291 N 
ATOM     14  C   UNL     1     145.654 168.441 186.698  0.00  0.00    +0.236 C 
ATOM     15  O   UNL     1     146.842 168.797 186.678  0.00  0.00    -0.274 OA
ATOM     16  C   UNL     1     144.792 168.559 185.418  0.00  0.00    +0.097 C 
ATOM     17  N   UNL     1     145.541 169.345 184.435  0.00  0.00    -0.304 N 
ATOM     18  C   UNL     1     144.938 169.970 183.369  0.00  0.00    +0.217 C 
ATOM     19  O   UNL     1     143.723 169.951 183.189  0.00  0.00    -0.275 OA
ATOM     20  C   UNL     1     145.924 170.592 182.385  0.00  0.00    +0.036 C 
ATOM     21  C   UNL     1     145.298 171.769 181.615  0.00  0.00    -0.021 C 
ATOM     22  C   UNL     1     145.253 173.059 182.424  0.00  0.00    -0.076 C 
ATOM     23  C   UNL     1     144.099 173.443 183.009  0.00  0.00    -0.082 C 
ATOM     24  H   UNL     1     142.688 174.663 183.967  0.00  0.00    +0.034 HD
ATOM     25  H   UNL     1     144.183 175.610 185.742  0.00  0.00    +0.031 HD
ATOM     26  H   UNL     1     145.520 174.684 185.126  0.00  0.00    +0.031 HD
ATOM     27  H   UNL     1     144.152 172.547 185.568  0.00  0.00    +0.073 HD
ATOM     28  H   UNL     1     146.105 173.452 189.392  0.00  0.00    +0.040 HD
ATOM     29  H   UNL     1     147.149 172.445 188.362  0.00  0.00    +0.040 HD
ATOM     30  H   UNL     1     145.131 171.371 190.403  0.00  0.00    +0.055 HD
ATOM     31  H   UNL     1     146.903 169.963 188.561  0.00  0.00    +0.149 HD
ATOM     32  H   UNL     1     147.004 167.709 188.691  0.00  0.00    +0.060 HD
ATOM     33  H   UNL     1     143.867 169.101 185.636  0.00  0.00    +0.059 HD
ATOM     34  H   UNL     1     146.531 169.461 184.616  0.00  0.00    +0.149 HD
ATOM     35  H   UNL     1     146.811 170.926 182.933  0.00  0.00    +0.039 HD
ATOM     36  H   UNL     1     145.873 171.967 180.701  0.00  0.00    +0.032 HD
ATOM     37  H   UNL     1     144.288 171.507 181.265  0.00  0.00    +0.032 HD
ATOM     38  H   UNL     1     143.240 172.774 182.897  0.00  0.00    +0.057 HD
ENDROOT
BRANCH   8  39
ATOM     39  C   UNL     1     147.131 171.650 191.118  0.00  0.00    -0.026 A 
ATOM     40  C   UNL     1     148.291 170.876 191.295  0.00  0.00    -0.053 A 
ATOM     41  C   UNL     1     149.175 171.150 192.340  0.00  0.00    -0.020 A 
ATOM     42  C   UNL     1     148.900 172.186 193.223  0.00  0.00    +0.117 A 
ATOM     43  C   UNL     1     147.750 172.953 193.082  0.00  0.00    -0.020 A 
ATOM     44  C   UNL     1     146.867 172.681 192.035  0.00  0.00    -0.053 A 
ATOM     45  H   UNL     1     148.514 170.046 190.630  0.00  0.00    +0.062 HD
ATOM     46  H   UNL     1     150.072 170.551 192.470  0.00  0.00    +0.065 HD
ATOM     47  H   UNL     1     147.518 173.755 193.777  0.00  0.00    +0.065 HD
ATOM     48  H   UNL     1     145.956 173.271 191.945  0.00  0.00    +0.062 HD
BRANCH  42  49
ATOM     49  O   UNL     1     149.790 172.413 194.231  0.00  0.00    -0.507 OA
ATOM     50  H   UNL     1     149.860 173.373 194.366  0.00  0.00    +0.292 HD
ENDBRANCH  42  49
ENDBRANCH   8  39
BRANCH   1  51
ATOM     51  C   UNL     1     144.060 175.981 183.073  0.00  0.00    -0.059 C 
ATOM     52  H   UNL     1     143.799 175.922 182.015  0.00  0.00    +0.024 HD
ATOM     53  H   UNL     1     145.126 176.224 183.127  0.00  0.00    +0.024 HD
ATOM     54  H   UNL     1     143.507 176.817 183.517  0.00  0.00    +0.024 HD
ENDBRANCH   1  51
BRANCH  22  55
ATOM     55  C   UNL     1     146.552 173.818 182.457  0.00  0.00    -0.044 C 
ATOM     56  H   UNL     1     147.377 173.189 182.103  0.00  0.00    +0.027 HD
ATOM     57  H   UNL     1     146.490 174.692 181.802  0.00  0.00    +0.027 HD
ATOM     58  H   UNL     1     146.832 174.157 183.453  0.00  0.00    +0.027 HD
ENDBRANCH  22  55
BRANCH  20  59
ATOM     59  C   UNL     1     146.357 169.492 181.411  0.00  0.00    -0.054 C 
ATOM     60  H   UNL     1     146.585 168.567 181.947  0.00  0.00    +0.024 HD
ATOM     61  H   UNL     1     147.247 169.791 180.844  0.00  0.00    +0.024 HD
ATOM     62  H   UNL     1     145.567 169.272 180.685  0.00  0.00    +0.024 HD
ENDBRANCH  20  59
BRANCH  16  63
ATOM     63  C   UNL     1     144.505 167.169 184.854  0.00  0.00    -0.038 C 
ATOM     64  H   UNL     1     144.105 166.489 185.612  0.00  0.00    +0.025 HD
ATOM     65  H   UNL     1     145.421 166.712 184.461  0.00  0.00    +0.025 HD
ATOM     66  H   UNL     1     143.783 167.220 184.032  0.00  0.00    +0.025 HD
ENDBRANCH  16  63
BRANCH  13  67
ATOM     67  C   UNL     1     143.635 167.957 188.083  0.00  0.00    +0.004 C 
ATOM     68  H   UNL     1     143.281 167.114 188.676  0.00  0.00    +0.043 HD
ATOM     69  H   UNL     1     143.123 167.925 187.118  0.00  0.00    +0.043 HD
ATOM     70  H   UNL     1     143.357 168.870 188.604  0.00  0.00    +0.043 HD
ENDBRANCH  13  67
BRANCH   3  71
ATOM     71  C   UNL     1     142.588 173.615 186.623  0.00  0.00    -0.028 C 
ATOM     72  H   UNL     1     142.057 174.438 186.136  0.00  0.00    +0.027 HD
ATOM     73  H   UNL     1     142.570 173.776 187.707  0.00  0.00    +0.027 HD
ATOM     74  H   UNL     1     142.023 172.696 186.439  0.00  0.00    +0.027 HD
ENDBRANCH   3  71
BRANCH  12  75
ATOM     75  C   UNL     1     145.740 166.376 189.785  0.00  0.00    +0.003 C 
ATOM     76  H   UNL     1     145.817 165.509 189.118  0.00  0.00    +0.034 HD
ATOM     77  H   UNL     1     144.712 166.343 190.166  0.00  0.00    +0.034 HD
BRANCH  75  78
ATOM     78  C   UNL     1     146.685 166.218 190.948  0.00  0.00    -0.006 A 
ATOM     79  C   UNL     1     148.063 166.302 190.922  0.00  0.00    +0.087 A 
ATOM     80  N   UNL     1     148.552 166.057 192.170  0.00  0.00    -0.349 N 
ATOM     81  C   UNL     1     147.518 165.822 193.044  0.00  0.00    +0.048 A 
ATOM     82  C   UNL     1     147.545 165.524 194.413  0.00  0.00    -0.038 A 
ATOM     83  C   UNL     1     146.323 165.347 195.062  0.00  0.00    -0.060 A 
ATOM     84  C   UNL     1     145.122 165.465 194.370  0.00  0.00    -0.061 A 
ATOM     85  C   UNL     1     145.112 165.760 193.002  0.00  0.00    -0.052 A 
ATOM     86  C   UNL     1     146.332 165.934 192.313  0.00  0.00    +0.004 A 
ATOM     87 BR   UNL     1     149.169 166.679 189.420  0.00  0.00    -0.031 Br
ATOM     88  H   UNL     1     149.532 166.051 192.412  0.00  0.00    +0.166 HD
ATOM     89  H   UNL     1     148.480 165.436 194.957  0.00  0.00    +0.064 HD
ATOM     90  H   UNL     1     146.310 165.118 196.126  0.00  0.00    +0.062 HD
ATOM     91  H   UNL     1     144.179 165.329 194.896  0.00  0.00    +0.062 HD
ATOM     92  H   UNL     1     144.165 165.862 192.483  0.00  0.00    +0.062 HD
ENDBRANCH  75  78
ENDBRANCH  12  75
TORSDOF 10
ENDMDL
MODEL 7
REMARK VINA RESULT:      -6.7      3.991      7.871
REMARK  Name = Jasplakinolide_conf2
REMARK  10 active torsions:
REMARK  status: ('A' for Active; 'I' for Inactive)
REMARK    1  A    between atoms: C_1  and  C_2
REMARK    2  A    between atoms: C_4  and  C_47
REMARK    3  A    between atoms: C_9  and  C_40
REMARK    4  A    between atoms: C_13  and  C_29
REMARK    5  A    between atoms: N_14  and  C_28
REMARK    6  A    between atoms: C_17  and  C_27
REMARK    7  A    between atoms: C_21  and  C_26
REMARK    8  A    between atoms: C_23  and  C_25
REMARK    9  A    between atoms: C_29  and  C_30
REMARK   10  A    between atoms: C_43  and  O_46
REMARK                            x       y       z     vdW  Elec       q    Type
REMARK                         _______ _______ _______ _____ _____    ______ ____
ROOT
ATOM      1  C   UNL     1     142.695 173.290 184.319  0.00  0.00    -0.022 C 
ATOM      2  C   UNL     1     143.376 173.377 185.697  0.00  0.00    -0.010 C 
ATOM      3  C   UNL     1     143.641 172.019 186.372  0.00  0.00    +0.101 C 
ATOM      4  O   UNL     1     144.514 172.289 187.492  0.00  0.00    -0.462 OA
ATOM      5  C   UNL     1     145.257 171.238 187.939  0.00  0.00    +0.309 C 
ATOM      6  O   UNL     1     145.174 170.093 187.517  0.00  0.00    -0.251 OA
ATOM      7  C   UNL     1     146.247 171.728 188.969  0.00  0.00    +0.067 C 
ATOM      8  C   UNL     1     146.790 170.589 189.838  0.00  0.00    +0.058 C 
ATOM      9  N   UNL     1     147.582 169.646 189.070  0.00  0.00    -0.306 N 
ATOM     10  C   UNL     1     147.623 168.297 189.371  0.00  0.00    +0.234 C 
ATOM     11  O   UNL     1     147.109 167.806 190.372  0.00  0.00    -0.274 OA
ATOM     12  C   UNL     1     148.269 167.459 188.255  0.00  0.00    +0.106 C 
ATOM     13  N   UNL     1     147.305 167.406 187.123  0.00  0.00    -0.291 N 
ATOM     14  C   UNL     1     147.477 168.321 186.085  0.00  0.00    +0.236 C 
ATOM     15  O   UNL     1     148.356 169.195 186.136  0.00  0.00    -0.274 OA
ATOM     16  C   UNL     1     146.565 168.216 184.839  0.00  0.00    +0.097 C 
ATOM     17  N   UNL     1     146.785 169.405 184.012  0.00  0.00    -0.304 N 
ATOM     18  C   UNL     1     145.881 169.828 183.066  0.00  0.00    +0.217 C 
ATOM     19  O   UNL     1     144.806 169.266 182.876  0.00  0.00    -0.275 OA
ATOM     20  C   UNL     1     146.385 170.987 182.212  0.00  0.00    +0.036 C 
ATOM     21  C   UNL     1     145.227 171.832 181.652  0.00  0.00    -0.021 C 
ATOM     22  C   UNL     1     144.646 172.804 182.672  0.00  0.00    -0.076 C 
ATOM     23  C   UNL     1     143.494 172.500 183.306  0.00  0.00    -0.082 C 
ATOM     24  H   UNL     1     141.753 172.741 184.450  0.00  0.00    +0.034 HD
ATOM     25  H   UNL     1     142.762 173.993 186.373  0.00  0.00    +0.031 HD
ATOM     26  H   UNL     1     144.327 173.918 185.616  0.00  0.00    +0.031 HD
ATOM     27  H   UNL     1     144.151 171.349 185.672  0.00  0.00    +0.073 HD
ATOM     28  H   UNL     1     145.738 172.461 189.609  0.00  0.00    +0.040 HD
ATOM     29  H   UNL     1     147.051 172.242 188.428  0.00  0.00    +0.040 HD
ATOM     30  H   UNL     1     145.927 170.039 190.238  0.00  0.00    +0.055 HD
ATOM     31  H   UNL     1     148.007 169.941 188.193  0.00  0.00    +0.149 HD
ATOM     32  H   UNL     1     149.158 168.014 187.931  0.00  0.00    +0.060 HD
ATOM     33  H   UNL     1     145.514 168.215 185.140  0.00  0.00    +0.059 HD
ATOM     34  H   UNL     1     147.616 169.946 184.218  0.00  0.00    +0.149 HD
ATOM     35  H   UNL     1     147.053 171.611 182.816  0.00  0.00    +0.039 HD
ATOM     36  H   UNL     1     145.572 172.418 180.790  0.00  0.00    +0.032 HD
ATOM     37  H   UNL     1     144.433 171.182 181.255  0.00  0.00    +0.032 HD
ATOM     38  H   UNL     1     143.040 171.532 183.073  0.00  0.00    +0.057 HD
ENDROOT
BRANCH   8  39
ATOM     39  C   UNL     1     147.613 171.114 191.004  0.00  0.00    -0.026 A 
ATOM     40  C   UNL     1     148.830 170.520 191.381  0.00  0.00    -0.053 A 
ATOM     41  C   UNL     1     149.565 171.023 192.455  0.00  0.00    -0.020 A 
ATOM     42  C   UNL     1     149.083 172.111 193.171  0.00  0.00    +0.117 A 
ATOM     43  C   UNL     1     147.872 172.704 192.833  0.00  0.00    -0.020 A 
ATOM     44  C   UNL     1     147.139 172.203 191.755  0.00  0.00    -0.053 A 
ATOM     45  H   UNL     1     149.215 169.653 190.850  0.00  0.00    +0.062 HD
ATOM     46  H   UNL     1     150.507 170.563 192.739  0.00  0.00    +0.065 HD
ATOM     47  H   UNL     1     147.480 173.545 193.396  0.00  0.00    +0.065 HD
ATOM     48  H   UNL     1     146.180 172.657 191.512  0.00  0.00    +0.062 HD
BRANCH  42  49
ATOM     49  O   UNL     1     149.832 172.566 194.216  0.00  0.00    -0.507 OA
ATOM     50  H   UNL     1     150.613 171.993 194.304  0.00  0.00    +0.292 HD
ENDBRANCH  42  49
ENDBRANCH   8  39
BRANCH   1  51
ATOM     51  C   UNL     1     142.280 174.672 183.808  0.00  0.00    -0.059 C 
ATOM     52  H   UNL     1     143.127 175.258 183.444  0.00  0.00    +0.024 HD
ATOM     53  H   UNL     1     141.813 175.250 184.613  0.00  0.00    +0.024 HD
ATOM     54  H   UNL     1     141.549 174.588 182.996  0.00  0.00    +0.024 HD
ENDBRANCH   1  51
BRANCH  22  55
ATOM     55  C   UNL     1     145.439 174.071 182.846  0.00  0.00    -0.044 C 
ATOM     56  H   UNL     1     144.834 174.945 182.580  0.00  0.00    +0.027 HD
ATOM     57  H   UNL     1     145.745 174.178 183.891  0.00  0.00    +0.027 HD
ATOM     58  H   UNL     1     146.331 174.115 182.222  0.00  0.00    +0.027 HD
ENDBRANCH  22  55
BRANCH  20  59
ATOM     59  C   UNL     1     147.207 170.390 181.065  0.00  0.00    -0.054 C 
ATOM     60  H   UNL     1     147.984 169.723 181.451  0.00  0.00    +0.024 HD
ATOM     61  H   UNL     1     147.690 171.174 180.471  0.00  0.00    +0.024 HD
ATOM     62  H   UNL     1     146.575 169.808 180.385  0.00  0.00    +0.024 HD
ENDBRANCH  20  59
BRANCH  16  63
ATOM     63  C   UNL     1     146.919 166.963 184.041  0.00  0.00    -0.038 C 
ATOM     64  H   UNL     1     146.094 166.634 183.401  0.00  0.00    +0.025 HD
ATOM     65  H   UNL     1     147.160 166.129 184.711  0.00  0.00    +0.025 HD
ATOM     66  H   UNL     1     147.791 167.136 183.402  0.00  0.00    +0.025 HD
ENDBRANCH  16  63
BRANCH  13  67
ATOM     67  C   UNL     1     146.027 166.731 187.351  0.00  0.00    +0.004 C 
ATOM     68  H   UNL     1     145.930 166.361 188.371  0.00  0.00    +0.043 HD
ATOM     69  H   UNL     1     145.959 165.874 186.676  0.00  0.00    +0.043 HD
ATOM     70  H   UNL     1     145.193 167.403 187.161  0.00  0.00    +0.043 HD
ENDBRANCH  13  67
BRANCH   3  71
ATOM     71  C   UNL     1     142.354 171.371 186.884  0.00  0.00    -0.028 C 
ATOM     72  H   UNL     1     141.516 172.074 186.877  0.00  0.00    +0.027 HD
ATOM     73  H   UNL     1     142.487 170.992 187.903  0.00  0.00    +0.027 HD
ATOM     74  H   UNL     1     142.075 170.511 186.268  0.00  0.00    +0.027 HD
ENDBRANCH   3  71
BRANCH  12  75
ATOM     75  C   UNL     1     148.748 166.090 188.769  0.00  0.00    +0.003 C 
ATOM     76  H   UNL     1     148.612 165.303 188.017  0.00  0.00    +0.034 HD
ATOM     77  H   UNL     1     148.120 165.779 189.613  0.00  0.00    +0.034 HD
BRANCH  75  78
ATOM     78  C   UNL     1     150.183 166.122 189.229  0.00  0.00    -0.006 A 
ATOM     79  C   UNL     1     151.309 165.879 188.468  0.00  0.00    +0.087 A 
ATOM     80  N   UNL     1     152.414 165.964 189.261  0.00  0.00    -0.349 N 
ATOM     81  C   UNL     1     152.048 166.278 190.548  0.00  0.00    +0.048 A 
ATOM     82  C   UNL     1     152.839 166.460 191.691  0.00  0.00    -0.038 A 
ATOM     83  C   UNL     1     152.191 166.794 192.880  0.00  0.00    -0.060 A 
ATOM     84  C   UNL     1     150.808 166.941 192.925  0.00  0.00    -0.061 A 
ATOM     85  C   UNL     1     150.033 166.752 191.775  0.00  0.00    -0.052 A 
ATOM     86  C   UNL     1     150.656 166.403 190.558  0.00  0.00    +0.004 A 
ATOM     87 BR   UNL     1     151.383 165.466 186.612  0.00  0.00    -0.031 Br
ATOM     88  H   UNL     1     153.362 165.818 188.945  0.00  0.00    +0.166 HD
ATOM     89  H   UNL     1     153.918 166.351 191.659  0.00  0.00    +0.064 HD
ATOM     90  H   UNL     1     152.777 166.946 193.785  0.00  0.00    +0.062 HD
ATOM     91  H   UNL     1     150.323 167.208 193.861  0.00  0.00    +0.062 HD
ATOM     92  H   UNL     1     148.958 166.886 191.827  0.00  0.00    +0.062 HD
ENDBRANCH  75  78
ENDBRANCH  12  75
TORSDOF 10
ENDMDL
MODEL 8
REMARK VINA RESULT:      -6.7      4.467      7.000
REMARK  Name = Jasplakinolide_conf2
REMARK  10 active torsions:
REMARK  status: ('A' for Active; 'I' for Inactive)
REMARK    1  A    between atoms: C_1  and  C_2
REMARK    2  A    between atoms: C_4  and  C_47
REMARK    3  A    between atoms: C_9  and  C_40
REMARK    4  A    between atoms: C_13  and  C_29
REMARK    5  A    between atoms: N_14  and  C_28
REMARK    6  A    between atoms: C_17  and  C_27
REMARK    7  A    between atoms: C_21  and  C_26
REMARK    8  A    between atoms: C_23  and  C_25
REMARK    9  A    between atoms: C_29  and  C_30
REMARK   10  A    between atoms: C_43  and  O_46
REMARK                            x       y       z     vdW  Elec       q    Type
REMARK                         _______ _______ _______ _____ _____    ______ ____
ROOT
ATOM      1  C   UNL     1     154.388 164.073 185.714  0.00  0.00    -0.022 C 
ATOM      2  C   UNL     1     154.074 164.336 187.198  0.00  0.00    -0.010 C 
ATOM      3  C   UNL     1     153.069 165.476 187.452  0.00  0.00    +0.101 C 
ATOM      4  O   UNL     1     152.700 165.384 188.847  0.00  0.00    -0.462 OA
ATOM      5  C   UNL     1     151.507 165.948 189.188  0.00  0.00    +0.309 C 
ATOM      6  O   UNL     1     150.789 166.579 188.426  0.00  0.00    -0.251 OA
ATOM      7  C   UNL     1     151.181 165.598 190.620  0.00  0.00    +0.067 C 
ATOM      8  C   UNL     1     150.127 166.536 191.220  0.00  0.00    +0.058 C 
ATOM      9  N   UNL     1     148.839 166.399 190.565  0.00  0.00    -0.306 N 
ATOM     10  C   UNL     1     147.972 167.465 190.412  0.00  0.00    +0.234 C 
ATOM     11  O   UNL     1     148.151 168.569 190.918  0.00  0.00    -0.274 OA
ATOM     12  C   UNL     1     146.826 167.161 189.433  0.00  0.00    +0.106 C 
ATOM     13  N   UNL     1     147.402 167.143 188.062  0.00  0.00    -0.291 N 
ATOM     14  C   UNL     1     147.752 165.904 187.525  0.00  0.00    +0.236 C 
ATOM     15  O   UNL     1     147.653 164.862 188.191  0.00  0.00    -0.274 OA
ATOM     16  C   UNL     1     148.244 165.839 186.059  0.00  0.00    +0.097 C 
ATOM     17  N   UNL     1     148.755 164.489 185.809  0.00  0.00    -0.304 N 
ATOM     18  C   UNL     1     149.613 164.200 184.774  0.00  0.00    +0.217 C 
ATOM     19  O   UNL     1     150.046 165.060 184.011  0.00  0.00    -0.275 OA
ATOM     20  C   UNL     1     149.886 162.709 184.603  0.00  0.00    +0.036 C 
ATOM     21  C   UNL     1     151.249 162.451 183.936  0.00  0.00    -0.021 C 
ATOM     22  C   UNL     1     152.423 162.580 184.899  0.00  0.00    -0.076 C 
ATOM     23  C   UNL     1     153.167 163.706 184.900  0.00  0.00    -0.082 C 
ATOM     24  H   UNL     1     154.763 165.011 185.284  0.00  0.00    +0.034 HD
ATOM     25  H   UNL     1     155.006 164.561 187.738  0.00  0.00    +0.031 HD
ATOM     26  H   UNL     1     153.692 163.424 187.672  0.00  0.00    +0.031 HD
ATOM     27  H   UNL     1     152.177 165.330 186.833  0.00  0.00    +0.073 HD
ATOM     28  H   UNL     1     152.106 165.670 191.207  0.00  0.00    +0.040 HD
ATOM     29  H   UNL     1     150.845 164.554 190.631  0.00  0.00    +0.040 HD
ATOM     30  H   UNL     1     150.470 167.566 191.052  0.00  0.00    +0.055 HD
ATOM     31  H   UNL     1     148.615 165.540 190.068  0.00  0.00    +0.149 HD
ATOM     32  H   UNL     1     146.474 166.151 189.678  0.00  0.00    +0.060 HD
ATOM     33  H   UNL     1     149.071 166.537 185.907  0.00  0.00    +0.059 HD
ATOM     34  H   UNL     1     148.495 163.780 186.485  0.00  0.00    +0.149 HD
ATOM     35  H   UNL     1     149.846 162.225 185.584  0.00  0.00    +0.039 HD
ATOM     36  H   UNL     1     151.274 161.437 183.513  0.00  0.00    +0.032 HD
ATOM     37  H   UNL     1     151.391 163.121 183.076  0.00  0.00    +0.032 HD
ATOM     38  H   UNL     1     152.863 164.502 184.213  0.00  0.00    +0.057 HD
ENDROOT
BRANCH   8  39
ATOM     39  C   UNL     1     149.965 166.316 192.716  0.00  0.00    -0.026 A 
ATOM     40  C   UNL     1     148.708 166.374 193.342  0.00  0.00    -0.053 A 
ATOM     41  C   UNL     1     148.588 166.167 194.717  0.00  0.00    -0.020 A 
ATOM     42  C   UNL     1     149.722 165.918 195.478  0.00  0.00    +0.117 A 
ATOM     43  C   UNL     1     150.980 165.876 194.888  0.00  0.00    -0.020 A 
ATOM     44  C   UNL     1     151.099 166.079 193.512  0.00  0.00    -0.053 A 
ATOM     45  H   UNL     1     147.810 166.590 192.769  0.00  0.00    +0.062 HD
ATOM     46  H   UNL     1     147.613 166.209 195.194  0.00  0.00    +0.065 HD
ATOM     47  H   UNL     1     151.874 165.697 195.477  0.00  0.00    +0.065 HD
ATOM     48  H   UNL     1     152.090 166.069 193.060  0.00  0.00    +0.062 HD
BRANCH  42  49
ATOM     49  O   UNL     1     149.557 165.727 196.819  0.00  0.00    -0.507 OA
ATOM     50  H   UNL     1     149.669 164.780 197.009  0.00  0.00    +0.292 HD
ENDBRANCH  42  49
ENDBRANCH   8  39
BRANCH   1  51
ATOM     51  C   UNL     1     155.539 163.076 185.551  0.00  0.00    -0.059 C 
ATOM     52  H   UNL     1     156.484 163.457 185.941  0.00  0.00    +0.024 HD
ATOM     53  H   UNL     1     155.697 162.850 184.491  0.00  0.00    +0.024 HD
ATOM     54  H   UNL     1     155.315 162.131 186.060  0.00  0.00    +0.024 HD
ENDBRANCH   1  51
BRANCH  22  55
ATOM     55  C   UNL     1     152.655 161.370 185.763  0.00  0.00    -0.044 C 
ATOM     56  H   UNL     1     151.798 160.689 185.713  0.00  0.00    +0.027 HD
ATOM     57  H   UNL     1     153.539 160.827 185.413  0.00  0.00    +0.027 HD
ATOM     58  H   UNL     1     152.795 161.608 186.816  0.00  0.00    +0.027 HD
ENDBRANCH  22  55
BRANCH  20  59
ATOM     59  C   UNL     1     148.758 162.130 183.744  0.00  0.00    -0.054 C 
ATOM     60  H   UNL     1     149.136 161.817 182.767  0.00  0.00    +0.024 HD
ATOM     61  H   UNL     1     147.961 162.866 183.585  0.00  0.00    +0.024 HD
ATOM     62  H   UNL     1     148.304 161.256 184.222  0.00  0.00    +0.024 HD
ENDBRANCH  20  59
BRANCH  16  63
ATOM     63  C   UNL     1     147.085 166.133 185.108  0.00  0.00    -0.038 C 
ATOM     64  H   UNL     1     147.204 167.092 184.595  0.00  0.00    +0.025 HD
ATOM     65  H   UNL     1     146.134 166.174 185.653  0.00  0.00    +0.025 HD
ATOM     66  H   UNL     1     146.994 165.352 184.346  0.00  0.00    +0.025 HD
ENDBRANCH  16  63
BRANCH  13  67
ATOM     67  C   UNL     1     147.961 168.392 187.545  0.00  0.00    +0.004 C 
ATOM     68  H   UNL     1     147.750 168.532 186.484  0.00  0.00    +0.043 HD
ATOM     69  H   UNL     1     149.047 168.368 187.669  0.00  0.00    +0.043 HD
ATOM     70  H   UNL     1     147.559 169.249 188.079  0.00  0.00    +0.043 HD
ENDBRANCH  13  67
BRANCH   3  71
ATOM     71  C   UNL     1     153.682 166.851 187.185  0.00  0.00    -0.028 C 
ATOM     72  H   UNL     1     154.019 166.950 186.149  0.00  0.00    +0.027 HD
ATOM     73  H   UNL     1     154.532 167.035 187.851  0.00  0.00    +0.027 HD
ATOM     74  H   UNL     1     152.959 167.648 187.379  0.00  0.00    +0.027 HD
ENDBRANCH   3  71
BRANCH  12  75
ATOM     75  C   UNL     1     145.635 168.116 189.628  0.00  0.00    +0.003 C 
ATOM     76  H   UNL     1     145.397 168.662 188.707  0.00  0.00    +0.034 HD
ATOM     77  H   UNL     1     145.910 168.896 190.350  0.00  0.00    +0.034 HD
BRANCH  75  78
ATOM     78  C   UNL     1     144.409 167.405 190.139  0.00  0.00    -0.006 A 
ATOM     79  C   UNL     1     143.235 167.167 189.452  0.00  0.00    +0.087 A 
ATOM     80  N   UNL     1     142.353 166.534 190.276  0.00  0.00    -0.349 N 
ATOM     81  C   UNL     1     142.923 166.328 191.508  0.00  0.00    +0.048 A 
ATOM     82  C   UNL     1     142.393 165.726 192.658  0.00  0.00    -0.038 A 
ATOM     83  C   UNL     1     143.215 165.636 193.781  0.00  0.00    -0.060 A 
ATOM     84  C   UNL     1     144.517 166.128 193.756  0.00  0.00    -0.061 A 
ATOM     85  C   UNL     1     145.030 166.729 192.600  0.00  0.00    -0.052 A 
ATOM     86  C   UNL     1     144.220 166.845 191.450  0.00  0.00    +0.004 A 
ATOM     87 BR   UNL     1     142.835 167.634 187.651  0.00  0.00    -0.031 Br
ATOM     88  H   UNL     1     141.418 166.258 190.014  0.00  0.00    +0.166 HD
ATOM     89  H   UNL     1     141.380 165.336 192.680  0.00  0.00    +0.064 HD
ATOM     90  H   UNL     1     142.834 165.171 194.688  0.00  0.00    +0.062 HD
ATOM     91  H   UNL     1     145.144 166.043 194.640  0.00  0.00    +0.062 HD
ATOM     92  H   UNL     1     146.052 167.094 192.596  0.00  0.00    +0.062 HD
ENDBRANCH  75  78
ENDBRANCH  12  75
TORSDOF 10
ENDMDL
MODEL 9
REMARK VINA RESULT:      -6.6      4.850      9.032
REMARK  Name = Jasplakinolide_conf2
REMARK  10 active torsions:
REMARK  status: ('A' for Active; 'I' for Inactive)
REMARK    1  A    between atoms: C_1  and  C_2
REMARK    2  A    between atoms: C_4  and  C_47
REMARK    3  A    between atoms: C_9  and  C_40
REMARK    4  A    between atoms: C_13  and  C_29
REMARK    5  A    between atoms: N_14  and  C_28
REMARK    6  A    between atoms: C_17  and  C_27
REMARK    7  A    between atoms: C_21  and  C_26
REMARK    8  A    between atoms: C_23  and  C_25
REMARK    9  A    between atoms: C_29  and  C_30
REMARK   10  A    between atoms: C_43  and  O_46
REMARK                            x       y       z     vdW  Elec       q    Type
REMARK                         _______ _______ _______ _____ _____    ______ ____
ROOT
ATOM      1  C   UNL     1     141.027 175.862 183.227  0.00  0.00    -0.022 C 
ATOM      2  C   UNL     1     140.851 175.904 184.755  0.00  0.00    -0.010 C 
ATOM      3  C   UNL     1     141.125 174.569 185.472  0.00  0.00    +0.101 C 
ATOM      4  O   UNL     1     141.182 174.873 186.884  0.00  0.00    -0.462 OA
ATOM      5  C   UNL     1     141.867 173.987 187.661  0.00  0.00    +0.309 C 
ATOM      6  O   UNL     1     142.353 172.939 187.262  0.00  0.00    -0.251 OA
ATOM      7  C   UNL     1     141.999 174.545 189.057  0.00  0.00    +0.067 C 
ATOM      8  C   UNL     1     142.334 173.459 190.086  0.00  0.00    +0.058 C 
ATOM      9  N   UNL     1     143.644 172.877 189.858  0.00  0.00    -0.306 N 
ATOM     10  C   UNL     1     143.923 171.552 190.139  0.00  0.00    +0.234 C 
ATOM     11  O   UNL     1     143.144 170.798 190.714  0.00  0.00    -0.274 OA
ATOM     12  C   UNL     1     145.260 171.088 189.538  0.00  0.00    +0.106 C 
ATOM     13  N   UNL     1     145.072 170.969 188.067  0.00  0.00    -0.291 N 
ATOM     14  C   UNL     1     145.468 172.048 187.277  0.00  0.00    +0.236 C 
ATOM     15  O   UNL     1     145.894 173.096 187.785  0.00  0.00    -0.274 OA
ATOM     16  C   UNL     1     145.394 171.911 185.737  0.00  0.00    +0.097 C 
ATOM     17  N   UNL     1     145.641 173.230 185.150  0.00  0.00    -0.304 N 
ATOM     18  C   UNL     1     145.265 173.553 183.867  0.00  0.00    +0.217 C 
ATOM     19  O   UNL     1     144.658 172.774 183.137  0.00  0.00    -0.275 OA
ATOM     20  C   UNL     1     145.764 174.920 183.408  0.00  0.00    +0.036 C 
ATOM     21  C   UNL     1     144.861 175.521 182.316  0.00  0.00    -0.021 C 
ATOM     22  C   UNL     1     143.586 176.145 182.869  0.00  0.00    -0.076 C 
ATOM     23  C   UNL     1     142.422 175.466 182.795  0.00  0.00    -0.082 C 
ATOM     24  H   UNL     1     140.361 175.081 182.839  0.00  0.00    +0.034 HD
ATOM     25  H   UNL     1     139.830 176.233 185.001  0.00  0.00    +0.031 HD
ATOM     26  H   UNL     1     141.502 176.673 185.191  0.00  0.00    +0.031 HD
ATOM     27  H   UNL     1     142.092 174.166 185.152  0.00  0.00    +0.073 HD
ATOM     28  H   UNL     1     141.045 175.017 189.327  0.00  0.00    +0.040 HD
ATOM     29  H   UNL     1     142.772 175.322 189.025  0.00  0.00    +0.040 HD
ATOM     30  H   UNL     1     141.596 172.654 189.967  0.00  0.00    +0.055 HD
ATOM     31  H   UNL     1     144.346 173.402 189.340  0.00  0.00    +0.149 HD
ATOM     32  H   UNL     1     145.980 171.892 189.735  0.00  0.00    +0.060 HD
ATOM     33  H   UNL     1     144.392 171.598 185.434  0.00  0.00    +0.059 HD
ATOM     34  H   UNL     1     146.048 173.925 185.765  0.00  0.00    +0.149 HD
ATOM     35  H   UNL     1     145.812 175.590 184.273  0.00  0.00    +0.039 HD
ATOM     36  H   UNL     1     145.405 176.302 181.768  0.00  0.00    +0.032 HD
ATOM     37  H   UNL     1     144.613 174.762 181.560  0.00  0.00    +0.032 HD
ATOM     38  H   UNL     1     142.460 174.463 182.360  0.00  0.00    +0.057 HD
ENDROOT
BRANCH   8  39
ATOM     39  C   UNL     1     142.252 173.987 191.509  0.00  0.00    -0.026 A 
ATOM     40  C   UNL     1     143.241 174.829 192.047  0.00  0.00    -0.053 A 
ATOM     41  C   UNL     1     143.139 175.299 193.357  0.00  0.00    -0.020 A 
ATOM     42  C   UNL     1     142.060 174.921 194.144  0.00  0.00    +0.117 A 
ATOM     43  C   UNL     1     141.078 174.072 193.644  0.00  0.00    -0.020 A 
ATOM     44  C   UNL     1     141.178 173.605 192.332  0.00  0.00    -0.053 A 
ATOM     45  H   UNL     1     144.106 175.119 191.457  0.00  0.00    +0.062 HD
ATOM     46  H   UNL     1     143.904 175.953 193.765  0.00  0.00    +0.065 HD
ATOM     47  H   UNL     1     140.239 173.758 194.257  0.00  0.00    +0.065 HD
ATOM     48  H   UNL     1     140.419 172.921 191.955  0.00  0.00    +0.062 HD
BRANCH  42  49
ATOM     49  O   UNL     1     142.004 175.401 195.419  0.00  0.00    -0.507 OA
ATOM     50  H   UNL     1     142.537 174.820 195.988  0.00  0.00    +0.292 HD
ENDBRANCH  42  49
ENDBRANCH   8  39
BRANCH   1  51
ATOM     51  C   UNL     1     140.542 177.158 182.570  0.00  0.00    -0.059 C 
ATOM     52  H   UNL     1     139.670 177.004 181.930  0.00  0.00    +0.024 HD
ATOM     53  H   UNL     1     141.331 177.581 181.939  0.00  0.00    +0.024 HD
ATOM     54  H   UNL     1     140.284 177.909 183.325  0.00  0.00    +0.024 HD
ENDBRANCH   1  51
BRANCH  22  55
ATOM     55  C   UNL     1     143.764 177.529 183.434  0.00  0.00    -0.044 C 
ATOM     56  H   UNL     1     143.644 178.285 182.650  0.00  0.00    +0.027 HD
ATOM     57  H   UNL     1     143.008 177.717 184.203  0.00  0.00    +0.027 HD
ATOM     58  H   UNL     1     144.747 177.696 183.873  0.00  0.00    +0.027 HD
ENDBRANCH  22  55
BRANCH  20  59
ATOM     59  C   UNL     1     147.188 174.735 182.875  0.00  0.00    -0.054 C 
ATOM     60  H   UNL     1     147.466 173.677 182.872  0.00  0.00    +0.024 HD
ATOM     61  H   UNL     1     147.916 175.280 183.487  0.00  0.00    +0.024 HD
ATOM     62  H   UNL     1     147.280 175.108 181.850  0.00  0.00    +0.024 HD
ENDBRANCH  20  59
BRANCH  16  63
ATOM     63  C   UNL     1     146.457 170.927 185.252  0.00  0.00    -0.038 C 
ATOM     64  H   UNL     1     147.466 171.224 185.555  0.00  0.00    +0.025 HD
ATOM     65  H   UNL     1     146.455 170.861 184.157  0.00  0.00    +0.025 HD
ATOM     66  H   UNL     1     146.270 169.921 185.644  0.00  0.00    +0.025 HD
ENDBRANCH  16  63
BRANCH  13  67
ATOM     67  C   UNL     1     144.122 169.968 187.583  0.00  0.00    +0.004 C 
ATOM     68  H   UNL     1     143.932 169.187 188.320  0.00  0.00    +0.043 HD
ATOM     69  H   UNL     1     144.539 169.492 186.692  0.00  0.00    +0.043 HD
ATOM     70  H   UNL     1     143.169 170.425 187.331  0.00  0.00    +0.043 HD
ENDBRANCH  13  67
BRANCH   3  71
ATOM     71  C   UNL     1     140.016 173.546 185.224  0.00  0.00    -0.028 C 
ATOM     72  H   UNL     1     140.373 172.521 185.355  0.00  0.00    +0.027 HD
ATOM     73  H   UNL     1     139.608 173.651 184.212  0.00  0.00    +0.027 HD
ATOM     74  H   UNL     1     139.179 173.700 185.912  0.00  0.00    +0.027 HD
ENDBRANCH   3  71
BRANCH  12  75
ATOM     75  C   UNL     1     145.793 169.821 190.232  0.00  0.00    +0.003 C 
ATOM     76  H   UNL     1     145.739 168.945 189.575  0.00  0.00    +0.034 HD
ATOM     77  H   UNL     1     145.142 169.572 191.080  0.00  0.00    +0.034 HD
BRANCH  75  78
ATOM     78  C   UNL     1     147.198 169.998 190.745  0.00  0.00    -0.006 A 
ATOM     79  C   UNL     1     148.269 169.146 190.556  0.00  0.00    +0.087 A 
ATOM     80  N   UNL     1     149.356 169.639 191.214  0.00  0.00    -0.349 N 
ATOM     81  C   UNL     1     149.036 170.823 191.834  0.00  0.00    +0.048 A 
ATOM     82  C   UNL     1     149.827 171.672 192.620  0.00  0.00    -0.038 A 
ATOM     83  C   UNL     1     149.236 172.834 193.115  0.00  0.00    -0.060 A 
ATOM     84  C   UNL     1     147.908 173.136 192.836  0.00  0.00    -0.061 A 
ATOM     85  C   UNL     1     147.130 172.276 192.051  0.00  0.00    -0.052 A 
ATOM     86  C   UNL     1     147.694 171.087 191.543  0.00  0.00    +0.004 A 
ATOM     87 BR   UNL     1     148.293 167.522 189.565  0.00  0.00    -0.031 Br
ATOM     88  H   UNL     1     150.262 169.196 191.239  0.00  0.00    +0.166 HD
ATOM     89  H   UNL     1     150.866 171.441 192.836  0.00  0.00    +0.064 HD
ATOM     90  H   UNL     1     149.825 173.515 193.726  0.00  0.00    +0.062 HD
ATOM     91  H   UNL     1     147.467 174.051 193.227  0.00  0.00    +0.062 HD
ATOM     92  H   UNL     1     146.100 172.537 191.832  0.00  0.00    +0.062 HD
ENDBRANCH  75  78
ENDBRANCH  12  75
TORSDOF 10
ENDMDL
MODEL 10
REMARK VINA RESULT:      -6.6      3.812      6.277
REMARK  Name = Jasplakinolide_conf2
REMARK  10 active torsions:
REMARK  status: ('A' for Active; 'I' for Inactive)
REMARK    1  A    between atoms: C_1  and  C_2
REMARK    2  A    between atoms: C_4  and  C_47
REMARK    3  A    between atoms: C_9  and  C_40
REMARK    4  A    between atoms: C_13  and  C_29
REMARK    5  A    between atoms: N_14  and  C_28
REMARK    6  A    between atoms: C_17  and  C_27
REMARK    7  A    between atoms: C_21  and  C_26
REMARK    8  A    between atoms: C_23  and  C_25
REMARK    9  A    between atoms: C_29  and  C_30
REMARK   10  A    between atoms: C_43  and  O_46
REMARK                            x       y       z     vdW  Elec       q    Type
REMARK                         _______ _______ _______ _____ _____    ______ ____
ROOT
ATOM      1  C   UNL     1     144.544 164.707 182.661  0.00  0.00    -0.022 C 
ATOM      2  C   UNL     1     145.953 165.040 183.184  0.00  0.00    -0.010 C 
ATOM      3  C   UNL     1     145.981 165.949 184.428  0.00  0.00    +0.101 C 
ATOM      4  O   UNL     1     147.340 165.917 184.920  0.00  0.00    -0.462 OA
ATOM      5  C   UNL     1     147.507 166.235 186.235  0.00  0.00    +0.309 C 
ATOM      6  O   UNL     1     146.616 166.612 186.982  0.00  0.00    -0.251 OA
ATOM      7  C   UNL     1     148.938 165.965 186.635  0.00  0.00    +0.067 C 
ATOM      8  C   UNL     1     149.328 166.702 187.921  0.00  0.00    +0.058 C 
ATOM      9  N   UNL     1     148.587 166.220 189.072  0.00  0.00    -0.306 N 
ATOM     10  C   UNL     1     148.232 167.047 190.122  0.00  0.00    +0.234 C 
ATOM     11  O   UNL     1     148.615 168.208 190.235  0.00  0.00    -0.274 OA
ATOM     12  C   UNL     1     147.203 166.401 191.065  0.00  0.00    +0.106 C 
ATOM     13  N   UNL     1     145.898 166.375 190.350  0.00  0.00    -0.291 N 
ATOM     14  C   UNL     1     145.546 165.197 189.692  0.00  0.00    +0.236 C 
ATOM     15  O   UNL     1     146.322 164.231 189.642  0.00  0.00    -0.274 OA
ATOM     16  C   UNL     1     144.147 165.097 189.039  0.00  0.00    +0.097 C 
ATOM     17  N   UNL     1     144.106 163.876 188.232  0.00  0.00    -0.304 N 
ATOM     18  C   UNL     1     143.190 163.682 187.225  0.00  0.00    +0.217 C 
ATOM     19  O   UNL     1     142.369 164.536 186.900  0.00  0.00    -0.275 OA
ATOM     20  C   UNL     1     143.225 162.279 186.627  0.00  0.00    +0.036 C 
ATOM     21  C   UNL     1     142.713 162.263 185.175  0.00  0.00    -0.021 C 
ATOM     22  C   UNL     1     143.750 162.744 184.168  0.00  0.00    -0.076 C 
ATOM     23  C   UNL     1     143.678 164.000 183.681  0.00  0.00    -0.082 C 
ATOM     24  H   UNL     1     144.038 165.657 182.447  0.00  0.00    +0.034 HD
ATOM     25  H   UNL     1     146.540 165.518 182.385  0.00  0.00    +0.031 HD
ATOM     26  H   UNL     1     146.499 164.117 183.416  0.00  0.00    +0.031 HD
ATOM     27  H   UNL     1     145.310 165.549 185.196  0.00  0.00    +0.073 HD
ATOM     28  H   UNL     1     149.589 166.297 185.816  0.00  0.00    +0.040 HD
ATOM     29  H   UNL     1     149.046 164.879 186.743  0.00  0.00    +0.040 HD
ATOM     30  H   UNL     1     149.067 167.760 187.787  0.00  0.00    +0.055 HD
ATOM     31  H   UNL     1     148.180 165.287 189.056  0.00  0.00    +0.149 HD
ATOM     32  H   UNL     1     147.537 165.368 191.221  0.00  0.00    +0.060 HD
ATOM     33  H   UNL     1     143.983 165.942 188.365  0.00  0.00    +0.059 HD
ATOM     34  H   UNL     1     144.838 163.197 188.410  0.00  0.00    +0.149 HD
ATOM     35  H   UNL     1     144.250 161.897 186.672  0.00  0.00    +0.039 HD
ATOM     36  H   UNL     1     142.419 161.243 184.892  0.00  0.00    +0.032 HD
ATOM     37  H   UNL     1     141.793 162.859 185.084  0.00  0.00    +0.032 HD
ATOM     38  H   UNL     1     142.877 164.637 184.068  0.00  0.00    +0.057 HD
ENDROOT
BRANCH   8  39
ATOM     39  C   UNL     1     150.820 166.601 188.197  0.00  0.00    -0.026 A 
ATOM     40  C   UNL     1     151.318 166.057 189.394  0.00  0.00    -0.053 A 
ATOM     41  C   UNL     1     152.693 165.977 189.620  0.00  0.00    -0.020 A 
ATOM     42  C   UNL     1     153.579 166.452 188.662  0.00  0.00    +0.117 A 
ATOM     43  C   UNL     1     153.112 167.014 187.479  0.00  0.00    -0.020 A 
ATOM     44  C   UNL     1     151.737 167.091 187.251  0.00  0.00    -0.053 A 
ATOM     45  H   UNL     1     150.643 165.700 190.167  0.00  0.00    +0.062 HD
ATOM     46  H   UNL     1     153.072 165.552 190.545  0.00  0.00    +0.065 HD
ATOM     47  H   UNL     1     153.796 167.402 186.732  0.00  0.00    +0.065 HD
ATOM     48  H   UNL     1     151.378 167.554 186.333  0.00  0.00    +0.062 HD
BRANCH  42  49
ATOM     49  O   UNL     1     154.913 166.357 188.929  0.00  0.00    -0.507 OA
ATOM     50  H   UNL     1     155.251 167.249 189.115  0.00  0.00    +0.292 HD
ENDBRANCH  42  49
ENDBRANCH   8  39
BRANCH   1  51
ATOM     51  C   UNL     1     144.602 163.977 181.316  0.00  0.00    -0.059 C 
ATOM     52  H   UNL     1     144.880 164.636 180.492  0.00  0.00    +0.024 HD
ATOM     53  H   UNL     1     143.621 163.555 181.072  0.00  0.00    +0.024 HD
ATOM     54  H   UNL     1     145.319 163.149 181.349  0.00  0.00    +0.024 HD
ENDBRANCH   1  51
BRANCH  22  55
ATOM     55  C   UNL     1     144.770 161.707 183.783  0.00  0.00    -0.044 C 
ATOM     56  H   UNL     1     145.641 161.754 184.447  0.00  0.00    +0.027 HD
ATOM     57  H   UNL     1     144.335 160.706 183.868  0.00  0.00    +0.027 HD
ATOM     58  H   UNL     1     145.152 161.827 182.770  0.00  0.00    +0.027 HD
ENDBRANCH  22  55
BRANCH  20  59
ATOM     59  C   UNL     1     142.348 161.383 187.507  0.00  0.00    -0.054 C 
ATOM     60  H   UNL     1     142.404 161.694 188.554  0.00  0.00    +0.024 HD
ATOM     61  H   UNL     1     142.660 160.333 187.442  0.00  0.00    +0.024 HD
ATOM     62  H   UNL     1     141.298 161.430 187.200  0.00  0.00    +0.024 HD
ENDBRANCH  20  59
BRANCH  16  63
ATOM     63  C   UNL     1     143.071 165.032 190.123  0.00  0.00    -0.038 C 
ATOM     64  H   UNL     1     143.212 164.179 190.794  0.00  0.00    +0.025 HD
ATOM     65  H   UNL     1     142.075 164.929 189.676  0.00  0.00    +0.025 HD
ATOM     66  H   UNL     1     143.069 165.943 190.730  0.00  0.00    +0.025 HD
ENDBRANCH  16  63
BRANCH  13  67
ATOM     67  C   UNL     1     145.283 167.659 190.013  0.00  0.00    +0.004 C 
ATOM     68  H   UNL     1     145.168 167.794 188.938  0.00  0.00    +0.043 HD
ATOM     69  H   UNL     1     145.925 168.462 190.384  0.00  0.00    +0.043 HD
ATOM     70  H   UNL     1     144.299 167.750 190.466  0.00  0.00    +0.043 HD
ENDBRANCH  13  67
BRANCH   3  71
ATOM     71  C   UNL     1     145.603 167.392 184.092  0.00  0.00    -0.028 C 
ATOM     72  H   UNL     1     146.397 167.900 183.538  0.00  0.00    +0.027 HD
ATOM     73  H   UNL     1     145.388 167.961 185.003  0.00  0.00    +0.027 HD
ATOM     74  H   UNL     1     144.694 167.429 183.483  0.00  0.00    +0.027 HD
ENDBRANCH   3  71
BRANCH  12  75
ATOM     75  C   UNL     1     147.178 167.085 192.444  0.00  0.00    +0.003 C 
ATOM     76  H   UNL     1     146.155 167.217 192.814  0.00  0.00    +0.034 HD
ATOM     77  H   UNL     1     147.574 168.104 192.350  0.00  0.00    +0.034 HD
BRANCH  75  78
ATOM     78  C   UNL     1     148.005 166.345 193.463  0.00  0.00    -0.006 A 
ATOM     79  C   UNL     1     147.543 165.559 194.501  0.00  0.00    +0.087 A 
ATOM     80  N   UNL     1     148.604 165.101 195.224  0.00  0.00    -0.349 N 
ATOM     81  C   UNL     1     149.779 165.556 194.677  0.00  0.00    +0.048 A 
ATOM     82  C   UNL     1     151.103 165.345 195.084  0.00  0.00    -0.038 A 
ATOM     83  C   UNL     1     152.116 165.925 194.320  0.00  0.00    -0.060 A 
ATOM     84  C   UNL     1     151.817 166.684 193.193  0.00  0.00    -0.061 A 
ATOM     85  C   UNL     1     150.488 166.887 192.802  0.00  0.00    -0.052 A 
ATOM     86  C   UNL     1     149.440 166.324 193.559  0.00  0.00    +0.004 A 
ATOM     87 BR   UNL     1     145.733 165.152 194.925  0.00  0.00    -0.031 Br
ATOM     88  H   UNL     1     148.531 164.512 196.041  0.00  0.00    +0.166 HD
ATOM     89  H   UNL     1     151.341 164.750 195.960  0.00  0.00    +0.064 HD
ATOM     90  H   UNL     1     153.155 165.777 194.608  0.00  0.00    +0.062 HD
ATOM     91  H   UNL     1     152.622 167.122 192.607  0.00  0.00    +0.062 HD
ATOM     92  H   UNL     1     150.277 167.470 191.912  0.00  0.00    +0.062 HD
ENDBRANCH  75  78
ENDBRANCH  12  75
TORSDOF 10
ENDMDL
