MODEL 1
REMARK VINA RESULT:      -5.5      0.000      0.000
REMARK  Name = Kabiramide C_conf3
REMARK  29 active torsions:
REMARK  status: ('A' for Active; 'I' for Inactive)
REMARK    1  A    between atoms: C_1  and  C_2
REMARK    2  A    between atoms: C_4  and  O_64
REMARK    3  A    between atoms: C_9  and  C_41
REMARK    4  A    between atoms: C_10  and  C_40
REMARK    5  A    between atoms: C_11  and  O_38
REMARK    6  A    between atoms: C_30  and  O_36
REMARK    7  A    between atoms: C_31  and  C_35
REMARK    8  A    between atoms: C_32  and  O_34
REMARK    9  A    between atoms: O_36  and  C_37
REMARK   10  A    between atoms: O_38  and  C_39
REMARK   11  A    between atoms: C_41  and  C_42
REMARK   12  A    between atoms: C_42  and  C_43
REMARK   13  A    between atoms: C_42  and  O_62
REMARK   14  A    between atoms: C_43  and  C_44
REMARK   15  A    between atoms: C_43  and  C_45
REMARK   16  A    between atoms: C_45  and  C_46
REMARK   17  A    between atoms: C_46  and  C_47
REMARK   18  A    between atoms: C_47  and  C_49
REMARK   19  A    between atoms: C_49  and  C_50
REMARK   20  A    between atoms: C_49  and  C_51
REMARK   21  A    between atoms: C_51  and  C_52
REMARK   22  A    between atoms: C_51  and  O_60
REMARK   23  A    between atoms: C_52  and  C_53
REMARK   24  A    between atoms: C_52  and  C_54
REMARK   25  A    between atoms: C_55  and  N_56
REMARK   26  A    between atoms: N_56  and  C_57
REMARK   27  A    between atoms: O_60  and  C_61
REMARK   28  A    between atoms: O_62  and  C_63
REMARK   29  A    between atoms: O_64  and  C_65
REMARK                            x       y       z     vdW  Elec       q    Type
REMARK                         _______ _______ _______ _____ _____    ______ ____
ROOT
ATOM      1  C   UNL     1     148.051 161.460 187.779  0.00  0.00    -0.038 C 
ATOM      2  C   UNL     1     149.018 161.452 186.562  0.00  0.00    -0.012 C 
ATOM      3  C   UNL     1     150.343 160.676 186.727  0.00  0.00    +0.115 C 
ATOM      4  C   UNL     1     151.278 160.838 185.515  0.00  0.00    +0.082 C 
ATOM      5  C   UNL     1     152.086 162.114 185.425  0.00  0.00    +0.311 C 
ATOM      6  O   UNL     1     153.192 162.170 184.896  0.00  0.00    -0.251 OA
ATOM      7  O   UNL     1     151.439 163.167 185.965  0.00  0.00    -0.461 OA
ATOM      8  C   UNL     1     152.015 164.495 185.887  0.00  0.00    +0.110 C 
ATOM      9  C   UNL     1     152.455 164.855 187.349  0.00  0.00    +0.020 C 
ATOM     10  C   UNL     1     153.783 164.123 187.709  0.00  0.00    +0.068 C 
ATOM     11  C   UNL     1     154.071 163.867 189.221  0.00  0.00    -0.008 C 
ATOM     12  C   UNL     1     153.084 164.384 190.221  0.00  0.00    -0.077 C 
ATOM     13  C   UNL     1     153.381 165.166 191.273  0.00  0.00    -0.003 C 
ATOM     14  C   UNL     1     152.328 165.646 192.100  0.00  0.00    +0.220 A 
ATOM     15  N   UNL     1     151.043 165.606 191.794  0.00  0.00    -0.205 NA
ATOM     16  C   UNL     1     150.392 166.183 192.852  0.00  0.00    +0.164 A 
ATOM     17  C   UNL     1     151.299 166.559 193.798  0.00  0.00    +0.125 A 
ATOM     18  O   UNL     1     152.539 166.224 193.338  0.00  0.00    -0.443 OA
ATOM     19  C   UNL     1     148.847 166.337 192.924  0.00  0.00    +0.250 A 
ATOM     20  N   UNL     1     148.050 165.859 191.984  0.00  0.00    -0.203 NA
ATOM     21  C   UNL     1     146.787 166.153 192.423  0.00  0.00    +0.164 A 
ATOM     22  C   UNL     1     146.855 166.831 193.612  0.00  0.00    +0.125 A 
ATOM     23  O   UNL     1     148.173 166.954 193.950  0.00  0.00    -0.442 OA
ATOM     24  C   UNL     1     145.482 165.751 191.675  0.00  0.00    +0.249 A 
ATOM     25  N   UNL     1     145.471 165.048 190.559  0.00  0.00    -0.210 NA
ATOM     26  C   UNL     1     144.148 164.882 190.242  0.00  0.00    +0.109 A 
ATOM     27  C   UNL     1     143.386 165.518 191.197  0.00  0.00    +0.118 A 
ATOM     28  O   UNL     1     144.222 166.075 192.119  0.00  0.00    -0.442 OA
ATOM     29  C   UNL     1     143.671 164.130 189.031  0.00  0.00    +0.108 C 
ATOM     30  C   UNL     1     144.762 163.740 187.990  0.00  0.00    +0.014 C 
ATOM     31  C   UNL     1     145.863 162.759 188.514  0.00  0.00    +0.061 C 
ATOM     32  C   UNL     1     146.808 162.304 187.376  0.00  0.00    -0.024 C 
ATOM     33  H   UNL     1     148.555 161.962 188.617  0.00  0.00    +0.030 HD
ATOM     34  H   UNL     1     149.242 162.501 186.350  0.00  0.00    +0.030 HD
ATOM     35  H   UNL     1     148.494 161.060 185.684  0.00  0.00    +0.030 HD
ATOM     36  H   UNL     1     150.071 159.612 186.775  0.00  0.00    +0.074 HD
ATOM     37  H   UNL     1     150.721 160.724 184.579  0.00  0.00    +0.041 HD
ATOM     38  H   UNL     1     152.021 160.031 185.554  0.00  0.00    +0.041 HD
ATOM     39  H   UNL     1     152.889 164.530 185.233  0.00  0.00    +0.074 HD
ATOM     40  H   UNL     1     151.661 164.470 187.999  0.00  0.00    +0.036 HD
ATOM     41  H   UNL     1     153.779 163.137 187.231  0.00  0.00    +0.060 HD
ATOM     42  H   UNL     1     155.080 164.213 189.484  0.00  0.00    +0.033 HD
ATOM     43  H   UNL     1     154.094 162.776 189.357  0.00  0.00    +0.033 HD
ATOM     44  H   UNL     1     152.042 164.088 190.070  0.00  0.00    +0.057 HD
ATOM     45  H   UNL     1     154.393 165.474 191.492  0.00  0.00    +0.067 HD
ATOM     46  H   UNL     1     151.249 167.029 194.768  0.00  0.00    +0.105 HD
ATOM     47  H   UNL     1     146.132 167.246 194.296  0.00  0.00    +0.105 HD
ATOM     48  H   UNL     1     142.330 165.660 191.359  0.00  0.00    +0.105 HD
ATOM     49  H   UNL     1     142.964 164.810 188.531  0.00  0.00    +0.067 HD
ATOM     50  H   UNL     1     144.228 163.190 187.202  0.00  0.00    +0.035 HD
ATOM     51  H   UNL     1     146.466 163.234 189.293  0.00  0.00    +0.060 HD
ATOM     52  H   UNL     1     147.187 163.194 186.862  0.00  0.00    +0.029 HD
ATOM     53  H   UNL     1     146.221 161.734 186.643  0.00  0.00    +0.029 HD
ENDROOT
BRANCH   1  54
ATOM     54  C   UNL     1     147.680 160.043 188.219  0.00  0.00    -0.062 C 
ATOM     55  H   UNL     1     147.288 159.456 187.381  0.00  0.00    +0.023 HD
ATOM     56  H   UNL     1     146.929 160.061 189.010  0.00  0.00    +0.023 HD
ATOM     57  H   UNL     1     148.541 159.509 188.636  0.00  0.00    +0.023 HD
ENDBRANCH   1  54
BRANCH  30  58
ATOM     58  C   UNL     1     145.341 165.003 187.338  0.00  0.00    -0.057 C 
ATOM     59  H   UNL     1     146.261 165.334 187.838  0.00  0.00    +0.023 HD
ATOM     60  H   UNL     1     145.614 164.814 186.292  0.00  0.00    +0.023 HD
ATOM     61  H   UNL     1     144.628 165.838 187.360  0.00  0.00    +0.023 HD
ENDBRANCH  30  58
BRANCH   9  62
ATOM     62  C   UNL     1     152.575 166.369 187.574  0.00  0.00    -0.057 C 
ATOM     63  H   UNL     1     152.062 166.668 188.495  0.00  0.00    +0.023 HD
ATOM     64  H   UNL     1     152.145 166.937 186.741  0.00  0.00    +0.023 HD
ATOM     65  H   UNL     1     153.619 166.684 187.681  0.00  0.00    +0.023 HD
ENDBRANCH   9  62
BRANCH   8  66
ATOM     66  C   UNL     1     150.905 165.416 185.335  0.00  0.00    +0.011 C 
ATOM     67  H   UNL     1     150.998 165.519 184.249  0.00  0.00    +0.033 HD
ATOM     68  H   UNL     1     151.080 166.413 185.766  0.00  0.00    +0.033 HD
BRANCH  66  69
ATOM     69  C   UNL     1     149.423 165.072 185.630  0.00  0.00    +0.064 C 
ATOM     70  H   UNL     1     149.469 164.054 186.045  0.00  0.00    +0.060 HD
BRANCH  69  71
ATOM     71  C   UNL     1     148.742 165.958 186.715  0.00  0.00    -0.017 C 
ATOM     72  H   UNL     1     147.666 165.993 186.497  0.00  0.00    +0.032 HD
BRANCH  71  73
ATOM     73  C   UNL     1     148.933 165.443 188.147  0.00  0.00    -0.060 C 
ATOM     74  H   UNL     1     148.456 166.106 188.870  0.00  0.00    +0.023 HD
ATOM     75  H   UNL     1     149.980 165.346 188.419  0.00  0.00    +0.023 HD
ATOM     76  H   UNL     1     148.489 164.449 188.258  0.00  0.00    +0.023 HD
ENDBRANCH  71  73
BRANCH  71  77
ATOM     77  C   UNL     1     149.307 167.406 186.602  0.00  0.00    -0.041 C 
ATOM     78  H   UNL     1     150.279 167.379 186.091  0.00  0.00    +0.027 HD
ATOM     79  H   UNL     1     149.500 167.791 187.609  0.00  0.00    +0.027 HD
BRANCH  77  80
ATOM     80  C   UNL     1     148.408 168.414 185.876  0.00  0.00    +0.007 C 
ATOM     81  H   UNL     1     148.894 169.389 185.827  0.00  0.00    +0.034 HD
ATOM     82  H   UNL     1     148.265 168.062 184.850  0.00  0.00    +0.034 HD
BRANCH  80  83
ATOM     83  C   UNL     1     147.023 168.541 186.495  0.00  0.00    +0.139 C 
ATOM     84  O   UNL     1     146.012 168.144 185.903  0.00  0.00    -0.297 OA
BRANCH  83  85
ATOM     85  C   UNL     1     146.878 169.201 187.869  0.00  0.00    +0.041 C 
ATOM     86  H   UNL     1     147.860 169.628 188.108  0.00  0.00    +0.040 HD
BRANCH  85  87
ATOM     87  C   UNL     1     146.602 168.159 188.956  0.00  0.00    -0.053 C 
ATOM     88  H   UNL     1     145.565 167.814 188.904  0.00  0.00    +0.024 HD
ATOM     89  H   UNL     1     147.254 167.289 188.827  0.00  0.00    +0.024 HD
ATOM     90  H   UNL     1     146.765 168.554 189.965  0.00  0.00    +0.024 HD
ENDBRANCH  85  87
BRANCH  85  91
ATOM     91  C   UNL     1     145.837 170.345 187.863  0.00  0.00    +0.074 C 
ATOM     92  H   UNL     1     144.946 169.973 187.333  0.00  0.00    +0.061 HD
BRANCH  91  93
ATOM     93  C   UNL     1     145.406 170.815 189.284  0.00  0.00    +0.003 C 
ATOM     94  H   UNL     1     145.290 169.932 189.926  0.00  0.00    +0.037 HD
BRANCH  93  95
ATOM     95  C   UNL     1     144.082 171.586 189.279  0.00  0.00    -0.057 C 
ATOM     96  H   UNL     1     144.001 172.240 190.154  0.00  0.00    +0.024 HD
ATOM     97  H   UNL     1     143.977 172.205 188.386  0.00  0.00    +0.024 HD
ATOM     98  H   UNL     1     143.229 170.898 189.293  0.00  0.00    +0.024 HD
ENDBRANCH  93  95
BRANCH  93  99
ATOM     99  C   UNL     1     146.464 171.713 189.908  0.00  0.00    -0.065 C 
ATOM    100  C   UNL     1     147.161 171.364 191.001  0.00  0.00    -0.005 C 
ATOM    101  H   UNL     1     146.610 172.670 189.419  0.00  0.00    +0.059 HD
ATOM    102  H   UNL     1     146.960 170.392 191.455  0.00  0.00    +0.078 HD
BRANCH 100 103
ATOM    103  N   UNL     1     148.124 172.111 191.658  0.00  0.00    -0.284 N 
ATOM    104  C   UNL     1     148.596 171.876 192.943  0.00  0.00    +0.206 C 
ATOM    105  O   UNL     1     149.526 172.458 193.481  0.00  0.00    -0.279 OA
ATOM    106  H   UNL     1     148.050 171.083 193.474  0.00  0.00    +0.126 HD
BRANCH 103 107
ATOM    107  C   UNL     1     148.773 173.172 190.898  0.00  0.00    +0.007 C 
ATOM    108  H   UNL     1     149.828 172.949 190.708  0.00  0.00    +0.043 HD
ATOM    109  H   UNL     1     148.715 174.121 191.442  0.00  0.00    +0.043 HD
ATOM    110  H   UNL     1     148.256 173.262 189.938  0.00  0.00    +0.043 HD
ENDBRANCH 103 107
ENDBRANCH 100 103
ENDBRANCH  93  99
ENDBRANCH  91  93
BRANCH  91 111
ATOM    111  O   UNL     1     146.402 171.458 187.147  0.00  0.00    -0.379 OA
BRANCH 111 112
ATOM    112  C   UNL     1     145.644 171.834 186.002  0.00  0.00    +0.037 C 
ATOM    113  H   UNL     1     145.453 172.907 186.058  0.00  0.00    +0.052 HD
ATOM    114  H   UNL     1     146.209 171.627 185.089  0.00  0.00    +0.052 HD
ATOM    115  H   UNL     1     144.686 171.309 185.977  0.00  0.00    +0.052 HD
ENDBRANCH 111 112
ENDBRANCH  91 111
ENDBRANCH  85  91
ENDBRANCH  83  85
ENDBRANCH  80  83
ENDBRANCH  77  80
ENDBRANCH  71  77
ENDBRANCH  69  71
BRANCH  69 116
ATOM    116  O   UNL     1     148.633 165.065 184.441  0.00  0.00    -0.379 OA
BRANCH 116 117
ATOM    117  C   UNL     1     149.423 165.023 183.256  0.00  0.00    +0.037 C 
ATOM    118  H   UNL     1     150.477 165.062 183.541  0.00  0.00    +0.052 HD
ATOM    119  H   UNL     1     149.204 165.887 182.622  0.00  0.00    +0.052 HD
ATOM    120  H   UNL     1     149.243 164.095 182.702  0.00  0.00    +0.052 HD
ENDBRANCH 116 117
ENDBRANCH  69 116
ENDBRANCH  66  69
ENDBRANCH   8  66
BRANCH  31 121
ATOM    121  O   UNL     1     145.272 161.589 189.086  0.00  0.00    -0.391 OA
ATOM    122  H   UNL     1     145.360 161.634 190.064  0.00  0.00    +0.210 HD
ENDBRANCH  31 121
BRANCH  29 123
ATOM    123  O   UNL     1     142.953 162.954 189.454  0.00  0.00    -0.373 OA
BRANCH 123 124
ATOM    124  C   UNL     1     141.956 162.559 188.511  0.00  0.00    +0.037 C 
ATOM    125  H   UNL     1     142.410 162.376 187.536  0.00  0.00    +0.052 HD
ATOM    126  H   UNL     1     141.237 163.375 188.410  0.00  0.00    +0.052 HD
ATOM    127  H   UNL     1     141.427 161.668 188.857  0.00  0.00    +0.052 HD
ENDBRANCH 123 124
ENDBRANCH  29 123
BRANCH  10 128
ATOM    128  O   UNL     1     154.873 164.880 187.138  0.00  0.00    -0.379 OA
BRANCH 128 129
ATOM    129  C   UNL     1     155.986 165.007 188.016  0.00  0.00    +0.037 C 
ATOM    130  H   UNL     1     155.660 164.953 189.057  0.00  0.00    +0.052 HD
ATOM    131  H   UNL     1     156.529 165.937 187.838  0.00  0.00    +0.052 HD
ATOM    132  H   UNL     1     156.664 164.177 187.819  0.00  0.00    +0.052 HD
ENDBRANCH 128 129
ENDBRANCH  10 128
BRANCH   3 133
ATOM    133  O   UNL     1     150.984 161.050 187.959  0.00  0.00    -0.447 OA
BRANCH 133 134
ATOM    134  C   UNL     1     151.820 160.134 188.495  0.00  0.00    +0.398 C 
ATOM    135  O   UNL     1     153.009 160.290 188.727  0.00  0.00    -0.227 OA
ATOM    136  N   UNL     1     151.162 158.980 188.730  0.00  0.00    -0.295 N 
ATOM    137  H   UNL     1     151.672 158.184 189.071  0.00  0.00    +0.148 HD
ATOM    138  H   UNL     1     150.209 158.867 188.405  0.00  0.00    +0.148 HD
ENDBRANCH 133 134
ENDBRANCH   3 133
TORSDOF 29
ENDMDL
MODEL 2
REMARK VINA RESULT:      -5.2      1.777      2.273
REMARK  Name = Kabiramide C_conf3
REMARK  29 active torsions:
REMARK  status: ('A' for Active; 'I' for Inactive)
REMARK    1  A    between atoms: C_1  and  C_2
REMARK    2  A    between atoms: C_4  and  O_64
REMARK    3  A    between atoms: C_9  and  C_41
REMARK    4  A    between atoms: C_10  and  C_40
REMARK    5  A    between atoms: C_11  and  O_38
REMARK    6  A    between atoms: C_30  and  O_36
REMARK    7  A    between atoms: C_31  and  C_35
REMARK    8  A    between atoms: C_32  and  O_34
REMARK    9  A    between atoms: O_36  and  C_37
REMARK   10  A    between atoms: O_38  and  C_39
REMARK   11  A    between atoms: C_41  and  C_42
REMARK   12  A    between atoms: C_42  and  C_43
REMARK   13  A    between atoms: C_42  and  O_62
REMARK   14  A    between atoms: C_43  and  C_44
REMARK   15  A    between atoms: C_43  and  C_45
REMARK   16  A    between atoms: C_45  and  C_46
REMARK   17  A    between atoms: C_46  and  C_47
REMARK   18  A    between atoms: C_47  and  C_49
REMARK   19  A    between atoms: C_49  and  C_50
REMARK   20  A    between atoms: C_49  and  C_51
REMARK   21  A    between atoms: C_51  and  C_52
REMARK   22  A    between atoms: C_51  and  O_60
REMARK   23  A    between atoms: C_52  and  C_53
REMARK   24  A    between atoms: C_52  and  C_54
REMARK   25  A    between atoms: C_55  and  N_56
REMARK   26  A    between atoms: N_56  and  C_57
REMARK   27  A    between atoms: O_60  and  C_61
REMARK   28  A    between atoms: O_62  and  C_63
REMARK   29  A    between atoms: O_64  and  C_65
REMARK                            x       y       z     vdW  Elec       q    Type
REMARK                         _______ _______ _______ _____ _____    ______ ____
ROOT
ATOM      1  C   UNL     1     147.795 161.896 187.701  0.00  0.00    -0.038 C 
ATOM      2  C   UNL     1     148.781 162.034 186.507  0.00  0.00    -0.012 C 
ATOM      3  C   UNL     1     150.122 161.276 186.617  0.00  0.00    +0.115 C 
ATOM      4  C   UNL     1     151.072 161.582 185.445  0.00  0.00    +0.082 C 
ATOM      5  C   UNL     1     151.850 162.879 185.499  0.00  0.00    +0.311 C 
ATOM      6  O   UNL     1     152.962 163.015 184.999  0.00  0.00    -0.251 OA
ATOM      7  O   UNL     1     151.167 163.857 186.130  0.00  0.00    -0.461 OA
ATOM      8  C   UNL     1     151.710 165.199 186.196  0.00  0.00    +0.110 C 
ATOM      9  C   UNL     1     152.118 165.420 187.695  0.00  0.00    +0.020 C 
ATOM     10  C   UNL     1     153.458 164.686 188.004  0.00  0.00    +0.068 C 
ATOM     11  C   UNL     1     153.728 164.286 189.488  0.00  0.00    -0.008 C 
ATOM     12  C   UNL     1     152.713 164.677 190.516  0.00  0.00    -0.077 C 
ATOM     13  C   UNL     1     152.973 165.355 191.647  0.00  0.00    -0.003 C 
ATOM     14  C   UNL     1     151.896 165.724 192.498  0.00  0.00    +0.220 A 
ATOM     15  N   UNL     1     150.617 165.684 192.166  0.00  0.00    -0.205 NA
ATOM     16  C   UNL     1     149.935 166.137 193.265  0.00  0.00    +0.164 A 
ATOM     17  C   UNL     1     150.817 166.437 194.261  0.00  0.00    +0.125 A 
ATOM     18  O   UNL     1     152.072 166.179 193.792  0.00  0.00    -0.443 OA
ATOM     19  C   UNL     1     148.385 166.246 193.324  0.00  0.00    +0.250 A 
ATOM     20  N   UNL     1     147.615 165.847 192.325  0.00  0.00    -0.203 NA
ATOM     21  C   UNL     1     146.339 166.065 192.769  0.00  0.00    +0.164 A 
ATOM     22  C   UNL     1     146.371 166.622 194.021  0.00  0.00    +0.125 A 
ATOM     23  O   UNL     1     147.680 166.741 194.394  0.00  0.00    -0.442 OA
ATOM     24  C   UNL     1     145.056 165.711 191.960  0.00  0.00    +0.249 A 
ATOM     25  N   UNL     1     145.081 165.123 190.780  0.00  0.00    -0.210 NA
ATOM     26  C   UNL     1     143.768 164.959 190.423  0.00  0.00    +0.109 A 
ATOM     27  C   UNL     1     142.975 165.477 191.423  0.00  0.00    +0.118 A 
ATOM     28  O   UNL     1     143.782 165.958 192.411  0.00  0.00    -0.442 OA
ATOM     29  C   UNL     1     143.329 164.323 189.133  0.00  0.00    +0.108 C 
ATOM     30  C   UNL     1     144.446 164.066 188.079  0.00  0.00    +0.014 C 
ATOM     31  C   UNL     1     145.563 163.062 188.522  0.00  0.00    +0.061 C 
ATOM     32  C   UNL     1     146.538 162.747 187.361  0.00  0.00    -0.024 C 
ATOM     33  H   UNL     1     148.273 162.323 188.594  0.00  0.00    +0.030 HD
ATOM     34  H   UNL     1     148.982 163.103 186.406  0.00  0.00    +0.030 HD
ATOM     35  H   UNL     1     148.281 161.720 185.584  0.00  0.00    +0.030 HD
ATOM     36  H   UNL     1     149.876 160.207 186.554  0.00  0.00    +0.074 HD
ATOM     37  H   UNL     1     150.534 161.550 184.493  0.00  0.00    +0.041 HD
ATOM     38  H   UNL     1     151.835 160.793 185.417  0.00  0.00    +0.041 HD
ATOM     39  H   UNL     1     152.594 165.320 185.566  0.00  0.00    +0.074 HD
ATOM     40  H   UNL     1     151.324 164.953 188.288  0.00  0.00    +0.036 HD
ATOM     41  H   UNL     1     153.487 163.754 187.430  0.00  0.00    +0.060 HD
ATOM     42  H   UNL     1     154.724 164.627 189.803  0.00  0.00    +0.033 HD
ATOM     43  H   UNL     1     153.776 163.188 189.514  0.00  0.00    +0.033 HD
ATOM     44  H   UNL     1     151.682 164.372 190.317  0.00  0.00    +0.057 HD
ATOM     45  H   UNL     1     153.973 165.663 191.915  0.00  0.00    +0.067 HD
ATOM     46  H   UNL     1     150.740 166.804 195.272  0.00  0.00    +0.105 HD
ATOM     47  H   UNL     1     145.627 166.948 194.730  0.00  0.00    +0.105 HD
ATOM     48  H   UNL     1     141.913 165.578 191.579  0.00  0.00    +0.105 HD
ATOM     49  H   UNL     1     142.613 165.033 188.692  0.00  0.00    +0.067 HD
ATOM     50  H   UNL     1     143.940 163.585 187.230  0.00  0.00    +0.035 HD
ATOM     51  H   UNL     1     146.141 163.470 189.355  0.00  0.00    +0.060 HD
ATOM     52  H   UNL     1     146.902 163.692 186.947  0.00  0.00    +0.029 HD
ATOM     53  H   UNL     1     145.977 162.240 186.564  0.00  0.00    +0.029 HD
ENDROOT
BRANCH   1  54
ATOM     54  C   UNL     1     147.453 160.434 187.989  0.00  0.00    -0.062 C 
ATOM     55  H   UNL     1     147.201 159.895 187.069  0.00  0.00    +0.023 HD
ATOM     56  H   UNL     1     146.610 160.355 188.678  0.00  0.00    +0.023 HD
ATOM     57  H   UNL     1     148.284 159.910 188.473  0.00  0.00    +0.023 HD
ENDBRANCH   1  54
BRANCH  30  58
ATOM     58  C   UNL     1     145.003 165.401 187.568  0.00  0.00    -0.057 C 
ATOM     59  H   UNL     1     144.812 166.219 188.275  0.00  0.00    +0.023 HD
ATOM     60  H   UNL     1     146.093 165.351 187.449  0.00  0.00    +0.023 HD
ATOM     61  H   UNL     1     144.566 165.683 186.602  0.00  0.00    +0.023 HD
ENDBRANCH  30  58
BRANCH   9  62
ATOM     62  C   UNL     1     152.197 166.905 188.073  0.00  0.00    -0.057 C 
ATOM     63  H   UNL     1     153.102 167.111 188.656  0.00  0.00    +0.023 HD
ATOM     64  H   UNL     1     151.328 167.218 188.666  0.00  0.00    +0.023 HD
ATOM     65  H   UNL     1     152.240 167.551 187.189  0.00  0.00    +0.023 HD
ENDBRANCH   9  62
BRANCH   8  66
ATOM     66  C   UNL     1     150.587 166.145 185.720  0.00  0.00    +0.011 C 
ATOM     67  H   UNL     1     150.759 166.451 184.682  0.00  0.00    +0.033 HD
ATOM     68  H   UNL     1     150.657 167.053 186.336  0.00  0.00    +0.033 HD
BRANCH  66  69
ATOM     69  C   UNL     1     149.113 165.673 185.812  0.00  0.00    +0.064 C 
ATOM     70  H   UNL     1     149.194 164.578 185.879  0.00  0.00    +0.060 HD
BRANCH  69  71
ATOM     71  C   UNL     1     148.350 166.136 187.088  0.00  0.00    -0.017 C 
ATOM     72  H   UNL     1     147.273 166.037 186.892  0.00  0.00    +0.032 HD
BRANCH  71  73
ATOM     73  C   UNL     1     148.693 165.327 188.345  0.00  0.00    -0.060 C 
ATOM     74  H   UNL     1     149.666 164.842 188.246  0.00  0.00    +0.023 HD
ATOM     75  H   UNL     1     147.956 164.560 188.562  0.00  0.00    +0.023 HD
ATOM     76  H   UNL     1     148.731 165.981 189.222  0.00  0.00    +0.023 HD
ENDBRANCH  71  73
BRANCH  71  77
ATOM     77  C   UNL     1     148.661 167.643 187.335  0.00  0.00    -0.041 C 
ATOM     78  H   UNL     1     148.954 168.114 186.387  0.00  0.00    +0.027 HD
ATOM     79  H   UNL     1     149.530 167.721 187.997  0.00  0.00    +0.027 HD
BRANCH  77  80
ATOM     80  C   UNL     1     147.523 168.464 187.952  0.00  0.00    +0.007 C 
ATOM     81  H   UNL     1     147.470 169.448 187.487  0.00  0.00    +0.034 HD
ATOM     82  H   UNL     1     146.582 167.946 187.743  0.00  0.00    +0.034 HD
BRANCH  80  83
ATOM     83  C   UNL     1     147.626 168.596 189.464  0.00  0.00    +0.139 C 
ATOM     84  O   UNL     1     148.632 168.220 190.079  0.00  0.00    -0.297 OA
BRANCH  83  85
ATOM     85  C   UNL     1     146.446 169.183 190.244  0.00  0.00    +0.041 C 
ATOM     86  H   UNL     1     146.562 168.838 191.278  0.00  0.00    +0.040 HD
BRANCH  85  87
ATOM     87  C   UNL     1     145.117 168.598 189.758  0.00  0.00    -0.053 C 
ATOM     88  H   UNL     1     144.367 169.387 189.648  0.00  0.00    +0.024 HD
ATOM     89  H   UNL     1     145.245 168.115 188.784  0.00  0.00    +0.024 HD
ATOM     90  H   UNL     1     144.710 167.854 190.452  0.00  0.00    +0.024 HD
ENDBRANCH  85  87
BRANCH  85  91
ATOM     91  C   UNL     1     146.452 170.730 190.240  0.00  0.00    +0.074 C 
ATOM     92  H   UNL     1     147.174 171.052 189.474  0.00  0.00    +0.061 HD
BRANCH  91  93
ATOM     93  C   UNL     1     145.068 171.366 189.914  0.00  0.00    +0.003 C 
ATOM     94  H   UNL     1     144.328 170.562 189.812  0.00  0.00    +0.037 HD
BRANCH  93  95
ATOM     95  C   UNL     1     145.080 172.182 188.617  0.00  0.00    -0.057 C 
ATOM     96  H   UNL     1     144.216 172.854 188.564  0.00  0.00    +0.024 HD
ATOM     97  H   UNL     1     145.983 172.789 188.528  0.00  0.00    +0.024 HD
ATOM     98  H   UNL     1     145.050 171.524 187.741  0.00  0.00    +0.024 HD
ENDBRANCH  93  95
BRANCH  93  99
ATOM     99  C   UNL     1     144.611 172.286 191.037  0.00  0.00    -0.065 C 
ATOM    100  C   UNL     1     143.362 172.771 191.115  0.00  0.00    -0.005 C 
ATOM    101  H   UNL     1     145.369 172.541 191.769  0.00  0.00    +0.059 HD
ATOM    102  H   UNL     1     142.646 172.488 190.340  0.00  0.00    +0.078 HD
BRANCH 100 103
ATOM    103  N   UNL     1     142.850 173.627 192.075  0.00  0.00    -0.284 N 
ATOM    104  C   UNL     1     143.511 174.719 192.624  0.00  0.00    +0.206 C 
ATOM    105  O   UNL     1     143.022 175.543 193.381  0.00  0.00    -0.279 OA
ATOM    106  H   UNL     1     144.561 174.800 192.310  0.00  0.00    +0.126 HD
BRANCH 103 107
ATOM    107  C   UNL     1     141.461 173.428 192.468  0.00  0.00    +0.007 C 
ATOM    108  H   UNL     1     140.796 174.160 191.998  0.00  0.00    +0.043 HD
ATOM    109  H   UNL     1     141.356 173.517 193.555  0.00  0.00    +0.043 HD
ATOM    110  H   UNL     1     141.161 172.426 192.147  0.00  0.00    +0.043 HD
ENDBRANCH 103 107
ENDBRANCH 100 103
ENDBRANCH  93  99
ENDBRANCH  91  93
BRANCH  91 111
ATOM    111  O   UNL     1     146.886 171.176 191.538  0.00  0.00    -0.379 OA
BRANCH 111 112
ATOM    112  C   UNL     1     148.284 171.436 191.605  0.00  0.00    +0.037 C 
ATOM    113  H   UNL     1     148.565 172.018 190.727  0.00  0.00    +0.052 HD
ATOM    114  H   UNL     1     148.518 172.019 192.501  0.00  0.00    +0.052 HD
ATOM    115  H   UNL     1     148.856 170.504 191.605  0.00  0.00    +0.052 HD
ENDBRANCH 111 112
ENDBRANCH  91 111
ENDBRANCH  85  91
ENDBRANCH  83  85
ENDBRANCH  80  83
ENDBRANCH  77  80
ENDBRANCH  71  77
ENDBRANCH  69  71
BRANCH  69 116
ATOM    116  O   UNL     1     148.370 166.023 184.645  0.00  0.00    -0.379 OA
BRANCH 116 117
ATOM    117  C   UNL     1     147.217 165.207 184.460  0.00  0.00    +0.037 C 
ATOM    118  H   UNL     1     146.357 165.859 184.287  0.00  0.00    +0.052 HD
ATOM    119  H   UNL     1     147.024 164.611 185.357  0.00  0.00    +0.052 HD
ATOM    120  H   UNL     1     147.341 164.551 183.591  0.00  0.00    +0.052 HD
ENDBRANCH 116 117
ENDBRANCH  69 116
ENDBRANCH  66  69
ENDBRANCH   8  66
BRANCH  31 121
ATOM    121  O   UNL     1     144.993 161.827 188.963  0.00  0.00    -0.391 OA
ATOM    122  H   UNL     1     144.665 161.939 189.883  0.00  0.00    +0.210 HD
ENDBRANCH  31 121
BRANCH  29 123
ATOM    123  O   UNL     1     142.635 163.094 189.423  0.00  0.00    -0.373 OA
BRANCH 123 124
ATOM    124  C   UNL     1     141.626 162.800 188.457  0.00  0.00    +0.037 C 
ATOM    125  H   UNL     1     140.756 163.440 188.613  0.00  0.00    +0.052 HD
ATOM    126  H   UNL     1     141.317 161.760 188.588  0.00  0.00    +0.052 HD
ATOM    127  H   UNL     1     142.011 162.923 187.443  0.00  0.00    +0.052 HD
ENDBRANCH 123 124
ENDBRANCH  29 123
BRANCH  10 128
ATOM    128  O   UNL     1     154.538 165.522 187.533  0.00  0.00    -0.379 OA
BRANCH 128 129
ATOM    129  C   UNL     1     155.479 164.821 186.727  0.00  0.00    +0.037 C 
ATOM    130  H   UNL     1     156.313 164.464 187.338  0.00  0.00    +0.052 HD
ATOM    131  H   UNL     1     155.847 165.445 185.911  0.00  0.00    +0.052 HD
ATOM    132  H   UNL     1     154.971 163.960 186.293  0.00  0.00    +0.052 HD
ENDBRANCH 128 129
ENDBRANCH  10 128
BRANCH   3 133
ATOM    133  O   UNL     1     150.734 161.539 187.893  0.00  0.00    -0.447 OA
BRANCH 133 134
ATOM    134  C   UNL     1     151.315 160.482 188.501  0.00  0.00    +0.398 C 
ATOM    135  O   UNL     1     150.736 159.532 189.005  0.00  0.00    -0.227 OA
ATOM    136  N   UNL     1     152.657 160.620 188.501  0.00  0.00    -0.295 N 
ATOM    137  H   UNL     1     153.220 159.937 188.977  0.00  0.00    +0.148 HD
ATOM    138  H   UNL     1     153.075 161.485 188.180  0.00  0.00    +0.148 HD
ENDBRANCH 133 134
ENDBRANCH   3 133
TORSDOF 29
ENDMDL
MODEL 3
REMARK VINA RESULT:      -5.0      1.947      2.698
REMARK  Name = Kabiramide C_conf3
REMARK  29 active torsions:
REMARK  status: ('A' for Active; 'I' for Inactive)
REMARK    1  A    between atoms: C_1  and  C_2
REMARK    2  A    between atoms: C_4  and  O_64
REMARK    3  A    between atoms: C_9  and  C_41
REMARK    4  A    between atoms: C_10  and  C_40
REMARK    5  A    between atoms: C_11  and  O_38
REMARK    6  A    between atoms: C_30  and  O_36
REMARK    7  A    between atoms: C_31  and  C_35
REMARK    8  A    between atoms: C_32  and  O_34
REMARK    9  A    between atoms: O_36  and  C_37
REMARK   10  A    between atoms: O_38  and  C_39
REMARK   11  A    between atoms: C_41  and  C_42
REMARK   12  A    between atoms: C_42  and  C_43
REMARK   13  A    between atoms: C_42  and  O_62
REMARK   14  A    between atoms: C_43  and  C_44
REMARK   15  A    between atoms: C_43  and  C_45
REMARK   16  A    between atoms: C_45  and  C_46
REMARK   17  A    between atoms: C_46  and  C_47
REMARK   18  A    between atoms: C_47  and  C_49
REMARK   19  A    between atoms: C_49  and  C_50
REMARK   20  A    between atoms: C_49  and  C_51
REMARK   21  A    between atoms: C_51  and  C_52
REMARK   22  A    between atoms: C_51  and  O_60
REMARK   23  A    between atoms: C_52  and  C_53
REMARK   24  A    between atoms: C_52  and  C_54
REMARK   25  A    between atoms: C_55  and  N_56
REMARK   26  A    between atoms: N_56  and  C_57
REMARK   27  A    between atoms: O_60  and  C_61
REMARK   28  A    between atoms: O_62  and  C_63
REMARK   29  A    between atoms: O_64  and  C_65
REMARK                            x       y       z     vdW  Elec       q    Type
REMARK                         _______ _______ _______ _____ _____    ______ ____
ROOT
ATOM      1  C   UNL     1     149.210 160.943 187.628  0.00  0.00    -0.038 C 
ATOM      2  C   UNL     1     150.361 160.982 186.585  0.00  0.00    -0.012 C 
ATOM      3  C   UNL     1     151.733 160.435 187.036  0.00  0.00    +0.115 C 
ATOM      4  C   UNL     1     152.829 160.637 185.973  0.00  0.00    +0.082 C 
ATOM      5  C   UNL     1     153.456 162.010 185.873  0.00  0.00    +0.311 C 
ATOM      6  O   UNL     1     154.618 162.192 185.518  0.00  0.00    -0.251 OA
ATOM      7  O   UNL     1     152.588 162.993 186.189  0.00  0.00    -0.461 OA
ATOM      8  C   UNL     1     152.979 164.382 186.058  0.00  0.00    +0.110 C 
ATOM      9  C   UNL     1     153.111 164.927 187.523  0.00  0.00    +0.020 C 
ATOM     10  C   UNL     1     154.448 164.440 188.162  0.00  0.00    +0.068 C 
ATOM     11  C   UNL     1     154.508 164.360 189.719  0.00  0.00    -0.008 C 
ATOM     12  C   UNL     1     153.304 164.801 190.491  0.00  0.00    -0.077 C 
ATOM     13  C   UNL     1     153.307 165.705 191.486  0.00  0.00    -0.003 C 
ATOM     14  C   UNL     1     152.074 166.084 192.083  0.00  0.00    +0.220 A 
ATOM     15  N   UNL     1     150.877 165.821 191.587  0.00  0.00    -0.205 NA
ATOM     16  C   UNL     1     149.983 166.379 192.463  0.00  0.00    +0.164 A 
ATOM     17  C   UNL     1     150.656 166.968 193.493  0.00  0.00    +0.125 A 
ATOM     18  O   UNL     1     151.990 166.790 193.269  0.00  0.00    -0.443 OA
ATOM     19  C   UNL     1     148.442 166.298 192.278  0.00  0.00    +0.250 A 
ATOM     20  N   UNL     1     147.889 165.626 191.282  0.00  0.00    -0.203 NA
ATOM     21  C   UNL     1     146.542 165.758 191.486  0.00  0.00    +0.164 A 
ATOM     22  C   UNL     1     146.313 166.536 192.590  0.00  0.00    +0.125 A 
ATOM     23  O   UNL     1     147.525 166.889 193.114  0.00  0.00    -0.442 OA
ATOM     24  C   UNL     1     145.450 165.099 190.592  0.00  0.00    +0.249 A 
ATOM     25  N   UNL     1     145.726 164.311 189.571  0.00  0.00    -0.210 NA
ATOM     26  C   UNL     1     144.511 163.917 189.072  0.00  0.00    +0.109 A 
ATOM     27  C   UNL     1     143.519 164.506 189.823  0.00  0.00    +0.118 A 
ATOM     28  O   UNL     1     144.101 165.261 190.798  0.00  0.00    -0.442 OA
ATOM     29  C   UNL     1     144.355 163.002 187.889  0.00  0.00    +0.108 C 
ATOM     30  C   UNL     1     145.650 162.699 187.079  0.00  0.00    +0.014 C 
ATOM     31  C   UNL     1     146.771 161.946 187.871  0.00  0.00    +0.061 C 
ATOM     32  C   UNL     1     147.949 161.549 186.948  0.00  0.00    -0.024 C 
ATOM     33  H   UNL     1     149.491 161.585 188.475  0.00  0.00    +0.030 HD
ATOM     34  H   UNL     1     150.471 162.031 186.298  0.00  0.00    +0.030 HD
ATOM     35  H   UNL     1     150.052 160.441 185.683  0.00  0.00    +0.030 HD
ATOM     36  H   UNL     1     151.607 159.350 187.156  0.00  0.00    +0.074 HD
ATOM     37  H   UNL     1     152.460 160.361 184.980  0.00  0.00    +0.041 HD
ATOM     38  H   UNL     1     153.658 159.960 186.214  0.00  0.00    +0.041 HD
ATOM     39  H   UNL     1     153.938 164.496 185.548  0.00  0.00    +0.074 HD
ATOM     40  H   UNL     1     152.280 164.480 188.079  0.00  0.00    +0.036 HD
ATOM     41  H   UNL     1     154.661 163.429 187.799  0.00  0.00    +0.060 HD
ATOM     42  H   UNL     1     155.401 164.878 190.096  0.00  0.00    +0.033 HD
ATOM     43  H   UNL     1     154.658 163.301 189.973  0.00  0.00    +0.033 HD
ATOM     44  H   UNL     1     152.354 164.336 190.214  0.00  0.00    +0.057 HD
ATOM     45  H   UNL     1     154.215 166.182 191.826  0.00  0.00    +0.067 HD
ATOM     46  H   UNL     1     150.378 167.504 194.387  0.00  0.00    +0.105 HD
ATOM     47  H   UNL     1     145.434 166.891 193.106  0.00  0.00    +0.105 HD
ATOM     48  H   UNL     1     142.441 164.497 189.803  0.00  0.00    +0.105 HD
ATOM     49  H   UNL     1     143.656 163.521 187.215  0.00  0.00    +0.067 HD
ATOM     50  H   UNL     1     145.339 162.009 186.282  0.00  0.00    +0.035 HD
ATOM     51  H   UNL     1     147.162 162.572 188.677  0.00  0.00    +0.060 HD
ATOM     52  H   UNL     1     148.283 162.439 186.407  0.00  0.00    +0.029 HD
ATOM     53  H   UNL     1     147.579 160.835 186.199  0.00  0.00    +0.029 HD
ENDROOT
BRANCH   1  54
ATOM     54  C   UNL     1     148.969 159.527 188.155  0.00  0.00    -0.062 C 
ATOM     55  H   UNL     1     148.926 158.800 187.337  0.00  0.00    +0.023 HD
ATOM     56  H   UNL     1     148.036 159.471 188.718  0.00  0.00    +0.023 HD
ATOM     57  H   UNL     1     149.757 159.214 188.850  0.00  0.00    +0.023 HD
ENDBRANCH   1  54
BRANCH  30  58
ATOM     58  C   UNL     1     146.151 163.977 186.392  0.00  0.00    -0.057 C 
ATOM     59  H   UNL     1     145.823 164.880 186.924  0.00  0.00    +0.023 HD
ATOM     60  H   UNL     1     147.248 164.011 186.382  0.00  0.00    +0.023 HD
ATOM     61  H   UNL     1     145.796 164.050 185.356  0.00  0.00    +0.023 HD
ENDBRANCH  30  58
BRANCH   9  62
ATOM     62  C   UNL     1     152.982 166.455 187.599  0.00  0.00    -0.057 C 
ATOM     63  H   UNL     1     152.744 166.875 186.615  0.00  0.00    +0.023 HD
ATOM     64  H   UNL     1     153.908 166.921 187.957  0.00  0.00    +0.023 HD
ATOM     65  H   UNL     1     152.177 166.764 188.275  0.00  0.00    +0.023 HD
ENDBRANCH   9  62
BRANCH   8  66
ATOM     66  C   UNL     1     151.863 165.072 185.244  0.00  0.00    +0.011 C 
ATOM     67  H   UNL     1     152.218 165.316 184.237  0.00  0.00    +0.033 HD
ATOM     68  H   UNL     1     151.651 166.027 185.747  0.00  0.00    +0.033 HD
BRANCH  66  69
ATOM     69  C   UNL     1     150.497 164.357 185.081  0.00  0.00    +0.064 C 
ATOM     70  H   UNL     1     150.668 163.364 185.521  0.00  0.00    +0.060 HD
BRANCH  69  71
ATOM     71  C   UNL     1     149.318 164.994 185.875  0.00  0.00    -0.017 C 
ATOM     72  H   UNL     1     148.413 164.409 185.662  0.00  0.00    +0.032 HD
BRANCH  71  73
ATOM     73  C   UNL     1     149.536 165.023 187.392  0.00  0.00    -0.060 C 
ATOM     74  H   UNL     1     150.428 165.596 187.650  0.00  0.00    +0.023 HD
ATOM     75  H   UNL     1     149.642 164.029 187.817  0.00  0.00    +0.023 HD
ATOM     76  H   UNL     1     148.681 165.487 187.893  0.00  0.00    +0.023 HD
ENDBRANCH  71  73
BRANCH  71  77
ATOM     77  C   UNL     1     149.092 166.444 185.352  0.00  0.00    -0.041 C 
ATOM     78  H   UNL     1     148.073 166.531 184.950  0.00  0.00    +0.027 HD
ATOM     79  H   UNL     1     149.770 166.627 184.512  0.00  0.00    +0.027 HD
BRANCH  77  80
ATOM     80  C   UNL     1     149.302 167.561 186.380  0.00  0.00    +0.007 C 
ATOM     81  H   UNL     1     149.381 167.143 187.383  0.00  0.00    +0.034 HD
ATOM     82  H   UNL     1     150.250 168.057 186.151  0.00  0.00    +0.034 HD
BRANCH  80  83
ATOM     83  C   UNL     1     148.222 168.633 186.335  0.00  0.00    +0.139 C 
ATOM     84  O   UNL     1     147.971 169.254 185.296  0.00  0.00    -0.297 OA
BRANCH  83  85
ATOM     85  C   UNL     1     147.449 168.967 187.615  0.00  0.00    +0.041 C 
ATOM     86  H   UNL     1     147.785 169.964 187.922  0.00  0.00    +0.040 HD
BRANCH  85  87
ATOM     87  C   UNL     1     147.840 168.027 188.758  0.00  0.00    -0.053 C 
ATOM     88  H   UNL     1     147.021 167.935 189.477  0.00  0.00    +0.024 HD
ATOM     89  H   UNL     1     148.065 167.028 188.371  0.00  0.00    +0.024 HD
ATOM     90  H   UNL     1     148.719 168.381 189.307  0.00  0.00    +0.024 HD
ENDBRANCH  85  87
BRANCH  85  91
ATOM     91  C   UNL     1     145.921 169.015 187.380  0.00  0.00    +0.074 C 
ATOM     92  H   UNL     1     145.756 168.967 186.292  0.00  0.00    +0.061 HD
BRANCH  91  93
ATOM     93  C   UNL     1     145.142 167.846 188.052  0.00  0.00    +0.003 C 
ATOM     94  H   UNL     1     145.866 167.150 188.494  0.00  0.00    +0.037 HD
BRANCH  93  95
ATOM     95  C   UNL     1     144.267 167.069 187.062  0.00  0.00    -0.057 C 
ATOM     96  H   UNL     1     143.237 167.442 187.065  0.00  0.00    +0.024 HD
ATOM     97  H   UNL     1     144.647 167.142 186.041  0.00  0.00    +0.024 HD
ATOM     98  H   UNL     1     144.240 166.003 187.317  0.00  0.00    +0.024 HD
ENDBRANCH  93  95
BRANCH  93  99
ATOM     99  C   UNL     1     144.240 168.358 189.165  0.00  0.00    -0.065 C 
ATOM    100  C   UNL     1     142.908 168.188 189.157  0.00  0.00    -0.005 C 
ATOM    101  H   UNL     1     144.742 168.888 189.967  0.00  0.00    +0.059 HD
ATOM    102  H   UNL     1     142.458 167.656 188.316  0.00  0.00    +0.078 HD
BRANCH 100 103
ATOM    103  N   UNL     1     141.998 168.630 190.102  0.00  0.00    -0.284 N 
ATOM    104  C   UNL     1     140.847 169.361 189.841  0.00  0.00    +0.206 C 
ATOM    105  O   UNL     1     139.983 169.650 190.655  0.00  0.00    -0.279 OA
ATOM    106  H   UNL     1     140.755 169.677 188.792  0.00  0.00    +0.126 HD
BRANCH 103 107
ATOM    107  C   UNL     1     142.212 168.201 191.479  0.00  0.00    +0.007 C 
ATOM    108  H   UNL     1     143.212 167.779 191.622  0.00  0.00    +0.043 HD
ATOM    109  H   UNL     1     141.475 167.441 191.760  0.00  0.00    +0.043 HD
ATOM    110  H   UNL     1     142.107 169.078 192.125  0.00  0.00    +0.043 HD
ENDBRANCH 103 107
ENDBRANCH 100 103
ENDBRANCH  93  99
ENDBRANCH  91  93
BRANCH  91 111
ATOM    111  O   UNL     1     145.431 170.268 187.892  0.00  0.00    -0.379 OA
BRANCH 111 112
ATOM    112  C   UNL     1     145.652 171.363 187.009  0.00  0.00    +0.037 C 
ATOM    113  H   UNL     1     145.304 172.272 187.501  0.00  0.00    +0.052 HD
ATOM    114  H   UNL     1     146.719 171.467 186.794  0.00  0.00    +0.052 HD
ATOM    115  H   UNL     1     145.093 171.233 186.078  0.00  0.00    +0.052 HD
ENDBRANCH 111 112
ENDBRANCH  91 111
ENDBRANCH  85  91
ENDBRANCH  83  85
ENDBRANCH  80  83
ENDBRANCH  77  80
ENDBRANCH  71  77
ENDBRANCH  69  71
BRANCH  69 116
ATOM    116  O   UNL     1     150.137 164.210 183.707  0.00  0.00    -0.379 OA
BRANCH 116 117
ATOM    117  C   UNL     1     149.156 163.199 183.499  0.00  0.00    +0.037 C 
ATOM    118  H   UNL     1     149.667 162.272 183.229  0.00  0.00    +0.052 HD
ATOM    119  H   UNL     1     148.489 163.478 182.678  0.00  0.00    +0.052 HD
ATOM    120  H   UNL     1     148.576 163.028 184.412  0.00  0.00    +0.052 HD
ENDBRANCH 116 117
ENDBRANCH  69 116
ENDBRANCH  66  69
ENDBRANCH   8  66
BRANCH  31 121
ATOM    121  O   UNL     1     146.259 160.752 188.467  0.00  0.00    -0.391 OA
ATOM    122  H   UNL     1     145.714 160.273 187.803  0.00  0.00    +0.210 HD
ENDBRANCH  31 121
BRANCH  29 123
ATOM    123  O   UNL     1     143.745 161.770 188.320  0.00  0.00    -0.373 OA
BRANCH 123 124
ATOM    124  C   UNL     1     142.686 161.357 187.457  0.00  0.00    +0.037 C 
ATOM    125  H   UNL     1     142.121 162.224 187.112  0.00  0.00    +0.052 HD
ATOM    126  H   UNL     1     142.012 160.710 188.025  0.00  0.00    +0.052 HD
ATOM    127  H   UNL     1     143.075 160.794 186.606  0.00  0.00    +0.052 HD
ENDBRANCH 123 124
ENDBRANCH  29 123
BRANCH  10 128
ATOM    128  O   UNL     1     155.503 165.306 187.689  0.00  0.00    -0.379 OA
BRANCH 128 129
ATOM    129  C   UNL     1     156.504 165.556 188.670  0.00  0.00    +0.037 C 
ATOM    130  H   UNL     1     156.600 166.629 188.852  0.00  0.00    +0.052 HD
ATOM    131  H   UNL     1     157.466 165.135 188.372  0.00  0.00    +0.052 HD
ATOM    132  H   UNL     1     156.194 165.071 189.595  0.00  0.00    +0.052 HD
ENDBRANCH 128 129
ENDBRANCH  10 128
BRANCH   3 133
ATOM    133  O   UNL     1     152.099 161.006 188.305  0.00  0.00    -0.447 OA
BRANCH 133 134
ATOM    134  C   UNL     1     153.032 160.332 189.011  0.00  0.00    +0.398 C 
ATOM    135  O   UNL     1     154.057 160.801 189.484  0.00  0.00    -0.227 OA
ATOM    136  N   UNL     1     152.694 159.030 189.115  0.00  0.00    -0.295 N 
ATOM    137  H   UNL     1     153.328 158.392 189.561  0.00  0.00    +0.148 HD
ATOM    138  H   UNL     1     151.898 158.674 188.599  0.00  0.00    +0.148 HD
ENDBRANCH 133 134
ENDBRANCH   3 133
TORSDOF 29
ENDMDL
MODEL 4
REMARK VINA RESULT:      -4.9      3.010      9.123
REMARK  Name = Kabiramide C_conf3
REMARK  29 active torsions:
REMARK  status: ('A' for Active; 'I' for Inactive)
REMARK    1  A    between atoms: C_1  and  C_2
REMARK    2  A    between atoms: C_4  and  O_64
REMARK    3  A    between atoms: C_9  and  C_41
REMARK    4  A    between atoms: C_10  and  C_40
REMARK    5  A    between atoms: C_11  and  O_38
REMARK    6  A    between atoms: C_30  and  O_36
REMARK    7  A    between atoms: C_31  and  C_35
REMARK    8  A    between atoms: C_32  and  O_34
REMARK    9  A    between atoms: O_36  and  C_37
REMARK   10  A    between atoms: O_38  and  C_39
REMARK   11  A    between atoms: C_41  and  C_42
REMARK   12  A    between atoms: C_42  and  C_43
REMARK   13  A    between atoms: C_42  and  O_62
REMARK   14  A    between atoms: C_43  and  C_44
REMARK   15  A    between atoms: C_43  and  C_45
REMARK   16  A    between atoms: C_45  and  C_46
REMARK   17  A    between atoms: C_46  and  C_47
REMARK   18  A    between atoms: C_47  and  C_49
REMARK   19  A    between atoms: C_49  and  C_50
REMARK   20  A    between atoms: C_49  and  C_51
REMARK   21  A    between atoms: C_51  and  C_52
REMARK   22  A    between atoms: C_51  and  O_60
REMARK   23  A    between atoms: C_52  and  C_53
REMARK   24  A    between atoms: C_52  and  C_54
REMARK   25  A    between atoms: C_55  and  N_56
REMARK   26  A    between atoms: N_56  and  C_57
REMARK   27  A    between atoms: O_60  and  C_61
REMARK   28  A    between atoms: O_62  and  C_63
REMARK   29  A    between atoms: O_64  and  C_65
REMARK                            x       y       z     vdW  Elec       q    Type
REMARK                         _______ _______ _______ _____ _____    ______ ____
ROOT
ATOM      1  C   UNL     1     146.375 168.845 185.569  0.00  0.00    -0.038 C 
ATOM      2  C   UNL     1     144.840 168.996 185.370  0.00  0.00    -0.012 C 
ATOM      3  C   UNL     1     144.309 170.419 185.089  0.00  0.00    +0.115 C 
ATOM      4  C   UNL     1     142.771 170.476 185.034  0.00  0.00    +0.082 C 
ATOM      5  C   UNL     1     142.028 170.504 186.352  0.00  0.00    +0.311 C 
ATOM      6  O   UNL     1     140.948 171.067 186.500  0.00  0.00    -0.251 OA
ATOM      7  O   UNL     1     142.677 169.822 187.319  0.00  0.00    -0.461 OA
ATOM      8  C   UNL     1     142.072 169.656 188.625  0.00  0.00    +0.110 C 
ATOM      9  C   UNL     1     142.918 170.547 189.602  0.00  0.00    +0.020 C 
ATOM     10  C   UNL     1     142.532 172.048 189.433  0.00  0.00    +0.068 C 
ATOM     11  C   UNL     1     143.601 173.110 189.838  0.00  0.00    -0.008 C 
ATOM     12  C   UNL     1     144.896 172.621 190.407  0.00  0.00    -0.077 C 
ATOM     13  C   UNL     1     145.436 173.024 191.570  0.00  0.00    -0.003 C 
ATOM     14  C   UNL     1     146.639 172.417 192.024  0.00  0.00    +0.220 A 
ATOM     15  N   UNL     1     147.160 171.304 191.535  0.00  0.00    -0.205 NA
ATOM     16  C   UNL     1     148.295 171.074 192.268  0.00  0.00    +0.164 A 
ATOM     17  C   UNL     1     148.453 172.065 193.192  0.00  0.00    +0.125 A 
ATOM     18  O   UNL     1     147.408 172.931 193.051  0.00  0.00    -0.443 OA
ATOM     19  C   UNL     1     149.240 169.865 192.023  0.00  0.00    +0.250 A 
ATOM     20  N   UNL     1     149.037 169.004 191.039  0.00  0.00    -0.203 NA
ATOM     21  C   UNL     1     150.085 168.129 191.128  0.00  0.00    +0.164 A 
ATOM     22  C   UNL     1     150.884 168.467 192.189  0.00  0.00    +0.125 A 
ATOM     23  O   UNL     1     150.356 169.584 192.773  0.00  0.00    -0.442 OA
ATOM     24  C   UNL     1     150.323 166.941 190.150  0.00  0.00    +0.249 A 
ATOM     25  N   UNL     1     149.552 166.692 189.109  0.00  0.00    -0.210 NA
ATOM     26  C   UNL     1     150.106 165.600 188.494  0.00  0.00    +0.109 A 
ATOM     27  C   UNL     1     151.215 165.210 189.210  0.00  0.00    +0.118 A 
ATOM     28  O   UNL     1     151.368 166.057 190.268  0.00  0.00    -0.442 OA
ATOM     29  C   UNL     1     149.541 164.969 187.251  0.00  0.00    +0.108 C 
ATOM     30  C   UNL     1     148.132 165.463 186.809  0.00  0.00    +0.014 C 
ATOM     31  C   UNL     1     148.049 166.977 186.419  0.00  0.00    +0.061 C 
ATOM     32  C   UNL     1     146.658 167.341 185.844  0.00  0.00    -0.024 C 
ATOM     33  H   UNL     1     146.665 169.422 186.459  0.00  0.00    +0.030 HD
ATOM     34  H   UNL     1     144.380 168.617 186.285  0.00  0.00    +0.030 HD
ATOM     35  H   UNL     1     144.513 168.338 184.558  0.00  0.00    +0.030 HD
ATOM     36  H   UNL     1     144.670 170.689 184.087  0.00  0.00    +0.074 HD
ATOM     37  H   UNL     1     142.375 169.646 184.441  0.00  0.00    +0.041 HD
ATOM     38  H   UNL     1     142.488 171.406 184.526  0.00  0.00    +0.041 HD
ATOM     39  H   UNL     1     141.033 169.991 188.647  0.00  0.00    +0.074 HD
ATOM     40  H   UNL     1     143.960 170.421 189.288  0.00  0.00    +0.036 HD
ATOM     41  H   UNL     1     142.306 172.235 188.378  0.00  0.00    +0.060 HD
ATOM     42  H   UNL     1     143.161 173.860 190.511  0.00  0.00    +0.033 HD
ATOM     43  H   UNL     1     143.861 173.659 188.923  0.00  0.00    +0.033 HD
ATOM     44  H   UNL     1     145.436 171.879 189.812  0.00  0.00    +0.057 HD
ATOM     45  H   UNL     1     144.966 173.771 192.193  0.00  0.00    +0.067 HD
ATOM     46  H   UNL     1     149.180 172.296 193.954  0.00  0.00    +0.105 HD
ATOM     47  H   UNL     1     151.790 168.070 192.620  0.00  0.00    +0.105 HD
ATOM     48  H   UNL     1     151.945 164.422 189.117  0.00  0.00    +0.105 HD
ATOM     49  H   UNL     1     149.458 163.897 187.486  0.00  0.00    +0.067 HD
ATOM     50  H   UNL     1     147.906 164.909 185.887  0.00  0.00    +0.035 HD
ATOM     51  H   UNL     1     148.238 167.612 187.288  0.00  0.00    +0.060 HD
ATOM     52  H   UNL     1     145.892 167.001 186.547  0.00  0.00    +0.029 HD
ATOM     53  H   UNL     1     146.510 166.780 184.910  0.00  0.00    +0.029 HD
ENDROOT
BRANCH   1  54
ATOM     54  C   UNL     1     147.158 169.381 184.370  0.00  0.00    -0.062 C 
ATOM     55  H   UNL     1     147.148 168.669 183.538  0.00  0.00    +0.023 HD
ATOM     56  H   UNL     1     148.197 169.584 184.638  0.00  0.00    +0.023 HD
ATOM     57  H   UNL     1     146.751 170.332 184.011  0.00  0.00    +0.023 HD
ENDBRANCH   1  54
BRANCH  30  58
ATOM     58  C   UNL     1     147.081 165.049 187.847  0.00  0.00    -0.057 C 
ATOM     59  H   UNL     1     146.059 165.161 187.458  0.00  0.00    +0.023 HD
ATOM     60  H   UNL     1     147.190 163.991 188.115  0.00  0.00    +0.023 HD
ATOM     61  H   UNL     1     147.157 165.645 188.765  0.00  0.00    +0.023 HD
ENDBRANCH  30  58
BRANCH   9  62
ATOM     62  C   UNL     1     142.793 170.101 191.065  0.00  0.00    -0.057 C 
ATOM     63  H   UNL     1     141.825 169.620 191.245  0.00  0.00    +0.023 HD
ATOM     64  H   UNL     1     142.889 170.949 191.755  0.00  0.00    +0.023 HD
ATOM     65  H   UNL     1     143.562 169.370 191.337  0.00  0.00    +0.023 HD
ENDBRANCH   9  62
BRANCH   8  66
ATOM     66  C   UNL     1     142.148 168.148 188.949  0.00  0.00    +0.011 C 
ATOM     67  H   UNL     1     141.563 167.919 189.846  0.00  0.00    +0.033 HD
ATOM     68  H   UNL     1     143.199 167.930 189.191  0.00  0.00    +0.033 HD
BRANCH  66  69
ATOM     69  C   UNL     1     141.732 167.121 187.865  0.00  0.00    +0.064 C 
ATOM     70  H   UNL     1     142.134 167.548 186.934  0.00  0.00    +0.060 HD
BRANCH  69  71
ATOM     71  C   UNL     1     142.369 165.708 188.013  0.00  0.00    -0.017 C 
ATOM     72  H   UNL     1     141.947 165.064 187.230  0.00  0.00    +0.032 HD
BRANCH  71  73
ATOM     73  C   UNL     1     143.897 165.700 187.881  0.00  0.00    -0.060 C 
ATOM     74  H   UNL     1     144.280 166.704 187.692  0.00  0.00    +0.023 HD
ATOM     75  H   UNL     1     144.243 165.052 187.081  0.00  0.00    +0.023 HD
ATOM     76  H   UNL     1     144.358 165.331 188.803  0.00  0.00    +0.023 HD
ENDBRANCH  71  73
BRANCH  71  77
ATOM     77  C   UNL     1     141.961 165.120 189.397  0.00  0.00    -0.041 C 
ATOM     78  H   UNL     1     141.398 164.189 189.245  0.00  0.00    +0.027 HD
ATOM     79  H   UNL     1     141.274 165.817 189.889  0.00  0.00    +0.027 HD
BRANCH  77  80
ATOM     80  C   UNL     1     143.116 164.834 190.363  0.00  0.00    +0.007 C 
ATOM     81  H   UNL     1     143.137 163.777 190.627  0.00  0.00    +0.034 HD
ATOM     82  H   UNL     1     144.052 165.068 189.849  0.00  0.00    +0.034 HD
BRANCH  80  83
ATOM     83  C   UNL     1     143.078 165.694 191.619  0.00  0.00    +0.139 C 
ATOM     84  O   UNL     1     142.056 166.305 191.953  0.00  0.00    -0.297 OA
BRANCH  83  85
ATOM     85  C   UNL     1     144.343 165.824 192.472  0.00  0.00    +0.041 C 
ATOM     86  H   UNL     1     144.926 164.912 192.295  0.00  0.00    +0.040 HD
BRANCH  85  87
ATOM     87  C   UNL     1     144.005 165.818 193.965  0.00  0.00    -0.053 C 
ATOM     88  H   UNL     1     144.399 166.715 194.452  0.00  0.00    +0.024 HD
ATOM     89  H   UNL     1     142.921 165.801 194.112  0.00  0.00    +0.024 HD
ATOM     90  H   UNL     1     144.429 164.951 194.485  0.00  0.00    +0.024 HD
ENDBRANCH  85  87
BRANCH  85  91
ATOM     91  C   UNL     1     145.204 167.042 192.061  0.00  0.00    +0.074 C 
ATOM     92  H   UNL     1     144.979 167.855 192.769  0.00  0.00    +0.061 HD
BRANCH  91  93
ATOM     93  C   UNL     1     146.737 166.770 192.091  0.00  0.00    +0.003 C 
ATOM     94  H   UNL     1     147.241 167.534 191.485  0.00  0.00    +0.037 HD
BRANCH  93  95
ATOM     95  C   UNL     1     147.107 165.390 191.535  0.00  0.00    -0.057 C 
ATOM     96  H   UNL     1     146.674 165.234 190.541  0.00  0.00    +0.024 HD
ATOM     97  H   UNL     1     148.188 165.262 191.454  0.00  0.00    +0.024 HD
ATOM     98  H   UNL     1     146.740 164.593 192.192  0.00  0.00    +0.024 HD
ENDBRANCH  93  95
BRANCH  93  99
ATOM     99  C   UNL     1     147.282 166.859 193.508  0.00  0.00    -0.065 C 
ATOM    100  C   UNL     1     148.135 165.956 194.018  0.00  0.00    -0.005 C 
ATOM    101  H   UNL     1     146.922 167.698 194.095  0.00  0.00    +0.059 HD
ATOM    102  H   UNL     1     148.452 165.127 193.383  0.00  0.00    +0.078 HD
BRANCH 100 103
ATOM    103  N   UNL     1     148.671 165.931 195.294  0.00  0.00    -0.284 N 
ATOM    104  C   UNL     1     150.021 165.835 195.606  0.00  0.00    +0.206 C 
ATOM    105  O   UNL     1     150.505 165.932 196.723  0.00  0.00    -0.279 OA
ATOM    106  H   UNL     1     150.663 165.662 194.731  0.00  0.00    +0.126 HD
BRANCH 103 107
ATOM    107  C   UNL     1     147.747 166.128 196.404  0.00  0.00    +0.007 C 
ATOM    108  H   UNL     1     147.732 165.266 197.079  0.00  0.00    +0.043 HD
ATOM    109  H   UNL     1     146.730 166.288 196.029  0.00  0.00    +0.043 HD
ATOM    110  H   UNL     1     148.078 167.007 196.966  0.00  0.00    +0.043 HD
ENDBRANCH 103 107
ENDBRANCH 100 103
ENDBRANCH  93  99
ENDBRANCH  91  93
BRANCH  91 111
ATOM    111  O   UNL     1     144.817 167.432 190.731  0.00  0.00    -0.379 OA
BRANCH 111 112
ATOM    112  C   UNL     1     145.790 168.239 190.076  0.00  0.00    +0.037 C 
ATOM    113  H   UNL     1     145.266 168.955 189.441  0.00  0.00    +0.052 HD
ATOM    114  H   UNL     1     146.382 168.790 190.811  0.00  0.00    +0.052 HD
ATOM    115  H   UNL     1     146.445 167.629 189.448  0.00  0.00    +0.052 HD
ENDBRANCH 111 112
ENDBRANCH  91 111
ENDBRANCH  85  91
ENDBRANCH  83  85
ENDBRANCH  80  83
ENDBRANCH  77  80
ENDBRANCH  71  77
ENDBRANCH  69  71
BRANCH  69 116
ATOM    116  O   UNL     1     140.312 167.008 187.760  0.00  0.00    -0.379 OA
BRANCH 116 117
ATOM    117  C   UNL     1     139.821 167.401 186.482  0.00  0.00    +0.037 C 
ATOM    118  H   UNL     1     139.413 166.520 185.982  0.00  0.00    +0.052 HD
ATOM    119  H   UNL     1     140.633 167.802 185.868  0.00  0.00    +0.052 HD
ATOM    120  H   UNL     1     139.025 168.146 186.585  0.00  0.00    +0.052 HD
ENDBRANCH 116 117
ENDBRANCH  69 116
ENDBRANCH  66  69
ENDBRANCH   8  66
BRANCH  31 121
ATOM    121  O   UNL     1     149.030 167.303 185.431  0.00  0.00    -0.391 OA
ATOM    122  H   UNL     1     148.725 166.970 184.558  0.00  0.00    +0.210 HD
ENDBRANCH  31 121
BRANCH  29 123
ATOM    123  O   UNL     1     150.480 165.129 186.169  0.00  0.00    -0.373 OA
BRANCH 123 124
ATOM    124  C   UNL     1     150.470 164.017 185.274  0.00  0.00    +0.037 C 
ATOM    125  H   UNL     1     150.434 164.365 184.241  0.00  0.00    +0.052 HD
ATOM    126  H   UNL     1     149.572 163.426 185.470  0.00  0.00    +0.052 HD
ATOM    127  H   UNL     1     151.346 163.384 185.432  0.00  0.00    +0.052 HD
ENDBRANCH 123 124
ENDBRANCH  29 123
BRANCH  10 128
ATOM    128  O   UNL     1     141.321 172.279 190.186  0.00  0.00    -0.379 OA
BRANCH 128 129
ATOM    129  C   UNL     1     141.064 173.659 190.423  0.00  0.00    +0.037 C 
ATOM    130  H   UNL     1     141.979 174.170 190.732  0.00  0.00    +0.052 HD
ATOM    131  H   UNL     1     140.283 173.795 191.174  0.00  0.00    +0.052 HD
ATOM    132  H   UNL     1     140.715 174.100 189.490  0.00  0.00    +0.052 HD
ENDBRANCH 128 129
ENDBRANCH  10 128
BRANCH   3 133
ATOM    133  O   UNL     1     144.851 171.346 186.047  0.00  0.00    -0.447 OA
BRANCH 133 134
ATOM    134  C   UNL     1     145.206 172.557 185.564  0.00  0.00    +0.398 C 
ATOM    135  O   UNL     1     145.974 172.766 184.637  0.00  0.00    -0.227 OA
ATOM    136  N   UNL     1     144.606 173.538 186.269  0.00  0.00    -0.295 N 
ATOM    137  H   UNL     1     144.827 174.496 186.063  0.00  0.00    +0.148 HD
ATOM    138  H   UNL     1     144.079 173.309 187.103  0.00  0.00    +0.148 HD
ENDBRANCH 133 134
ENDBRANCH   3 133
TORSDOF 29
ENDMDL
MODEL 5
REMARK VINA RESULT:      -4.8      2.609      6.698
REMARK  Name = Kabiramide C_conf3
REMARK  29 active torsions:
REMARK  status: ('A' for Active; 'I' for Inactive)
REMARK    1  A    between atoms: C_1  and  C_2
REMARK    2  A    between atoms: C_4  and  O_64
REMARK    3  A    between atoms: C_9  and  C_41
REMARK    4  A    between atoms: C_10  and  C_40
REMARK    5  A    between atoms: C_11  and  O_38
REMARK    6  A    between atoms: C_30  and  O_36
REMARK    7  A    between atoms: C_31  and  C_35
REMARK    8  A    between atoms: C_32  and  O_34
REMARK    9  A    between atoms: O_36  and  C_37
REMARK   10  A    between atoms: O_38  and  C_39
REMARK   11  A    between atoms: C_41  and  C_42
REMARK   12  A    between atoms: C_42  and  C_43
REMARK   13  A    between atoms: C_42  and  O_62
REMARK   14  A    between atoms: C_43  and  C_44
REMARK   15  A    between atoms: C_43  and  C_45
REMARK   16  A    between atoms: C_45  and  C_46
REMARK   17  A    between atoms: C_46  and  C_47
REMARK   18  A    between atoms: C_47  and  C_49
REMARK   19  A    between atoms: C_49  and  C_50
REMARK   20  A    between atoms: C_49  and  C_51
REMARK   21  A    between atoms: C_51  and  C_52
REMARK   22  A    between atoms: C_51  and  O_60
REMARK   23  A    between atoms: C_52  and  C_53
REMARK   24  A    between atoms: C_52  and  C_54
REMARK   25  A    between atoms: C_55  and  N_56
REMARK   26  A    between atoms: N_56  and  C_57
REMARK   27  A    between atoms: O_60  and  C_61
REMARK   28  A    between atoms: O_62  and  C_63
REMARK   29  A    between atoms: O_64  and  C_65
REMARK                            x       y       z     vdW  Elec       q    Type
REMARK                         _______ _______ _______ _____ _____    ______ ____
ROOT
ATOM      1  C   UNL     1     147.112 164.653 187.040  0.00  0.00    -0.038 C 
ATOM      2  C   UNL     1     146.656 165.826 187.952  0.00  0.00    -0.012 C 
ATOM      3  C   UNL     1     147.286 167.209 187.679  0.00  0.00    +0.115 C 
ATOM      4  C   UNL     1     146.863 168.266 188.715  0.00  0.00    +0.082 C 
ATOM      5  C   UNL     1     147.571 168.254 190.052  0.00  0.00    +0.311 C 
ATOM      6  O   UNL     1     147.756 169.266 190.722  0.00  0.00    -0.251 OA
ATOM      7  O   UNL     1     147.943 167.011 190.421  0.00  0.00    -0.461 OA
ATOM      8  C   UNL     1     148.550 166.786 191.718  0.00  0.00    +0.110 C 
ATOM      9  C   UNL     1     150.053 166.438 191.430  0.00  0.00    +0.020 C 
ATOM     10  C   UNL     1     150.852 167.734 191.098  0.00  0.00    +0.068 C 
ATOM     11  C   UNL     1     152.146 167.576 190.239  0.00  0.00    -0.008 C 
ATOM     12  C   UNL     1     152.557 166.193 189.838  0.00  0.00    -0.077 C 
ATOM     13  C   UNL     1     153.769 165.652 190.046  0.00  0.00    -0.003 C 
ATOM     14  C   UNL     1     153.997 164.298 189.678  0.00  0.00    +0.220 A 
ATOM     15  N   UNL     1     153.053 163.423 189.376  0.00  0.00    -0.205 NA
ATOM     16  C   UNL     1     153.707 162.250 189.105  0.00  0.00    +0.164 A 
ATOM     17  C   UNL     1     155.052 162.434 189.237  0.00  0.00    +0.125 A 
ATOM     18  O   UNL     1     155.257 163.733 189.602  0.00  0.00    -0.443 OA
ATOM     19  C   UNL     1     152.979 160.943 188.686  0.00  0.00    +0.250 A 
ATOM     20  N   UNL     1     151.670 160.896 188.505  0.00  0.00    -0.203 NA
ATOM     21  C   UNL     1     151.425 159.608 188.110  0.00  0.00    +0.164 A 
ATOM     22  C   UNL     1     152.596 158.897 188.092  0.00  0.00    +0.125 A 
ATOM     23  O   UNL     1     153.606 159.742 188.456  0.00  0.00    -0.442 OA
ATOM     24  C   UNL     1     150.018 159.060 187.729  0.00  0.00    +0.249 A 
ATOM     25  N   UNL     1     148.929 159.804 187.710  0.00  0.00    -0.210 NA
ATOM     26  C   UNL     1     147.921 158.970 187.299  0.00  0.00    +0.109 A 
ATOM     27  C   UNL     1     148.449 157.716 187.089  0.00  0.00    +0.118 A 
ATOM     28  O   UNL     1     149.786 157.758 187.357  0.00  0.00    -0.442 OA
ATOM     29  C   UNL     1     146.493 159.410 187.136  0.00  0.00    +0.108 C 
ATOM     30  C   UNL     1     146.139 160.820 187.693  0.00  0.00    +0.014 C 
ATOM     31  C   UNL     1     146.881 162.015 187.005  0.00  0.00    +0.061 C 
ATOM     32  C   UNL     1     146.354 163.379 187.511  0.00  0.00    -0.024 C 
ATOM     33  H   UNL     1     148.189 164.494 187.195  0.00  0.00    +0.030 HD
ATOM     34  H   UNL     1     146.892 165.520 188.974  0.00  0.00    +0.030 HD
ATOM     35  H   UNL     1     145.566 165.925 187.898  0.00  0.00    +0.030 HD
ATOM     36  H   UNL     1     146.889 167.542 186.709  0.00  0.00    +0.074 HD
ATOM     37  H   UNL     1     145.786 168.213 188.903  0.00  0.00    +0.041 HD
ATOM     38  H   UNL     1     147.072 169.256 188.289  0.00  0.00    +0.041 HD
ATOM     39  H   UNL     1     148.506 167.672 192.355  0.00  0.00    +0.074 HD
ATOM     40  H   UNL     1     150.041 165.801 190.539  0.00  0.00    +0.036 HD
ATOM     41  H   UNL     1     150.200 168.414 190.539  0.00  0.00    +0.060 HD
ATOM     42  H   UNL     1     152.991 168.089 190.719  0.00  0.00    +0.033 HD
ATOM     43  H   UNL     1     151.969 168.121 189.301  0.00  0.00    +0.033 HD
ATOM     44  H   UNL     1     151.797 165.590 189.333  0.00  0.00    +0.057 HD
ATOM     45  H   UNL     1     154.571 166.202 190.517  0.00  0.00    +0.067 HD
ATOM     46  H   UNL     1     155.928 161.816 189.120  0.00  0.00    +0.105 HD
ATOM     47  H   UNL     1     152.868 157.882 187.850  0.00  0.00    +0.105 HD
ATOM     48  H   UNL     1     148.052 156.764 186.777  0.00  0.00    +0.105 HD
ATOM     49  H   UNL     1     145.899 158.672 187.698  0.00  0.00    +0.067 HD
ATOM     50  H   UNL     1     145.074 160.965 187.465  0.00  0.00    +0.035 HD
ATOM     51  H   UNL     1     147.956 161.967 187.201  0.00  0.00    +0.060 HD
ATOM     52  H   UNL     1     146.389 163.381 188.605  0.00  0.00    +0.029 HD
ATOM     53  H   UNL     1     145.298 163.473 187.222  0.00  0.00    +0.029 HD
ENDROOT
BRANCH   1  54
ATOM     54  C   UNL     1     146.879 164.960 185.560  0.00  0.00    -0.062 C 
ATOM     55  H   UNL     1     147.482 164.308 184.918  0.00  0.00    +0.023 HD
ATOM     56  H   UNL     1     147.129 165.998 185.330  0.00  0.00    +0.023 HD
ATOM     57  H   UNL     1     145.827 164.837 185.280  0.00  0.00    +0.023 HD
ENDBRANCH   1  54
BRANCH  30  58
ATOM     58  C   UNL     1     146.272 160.829 189.222  0.00  0.00    -0.057 C 
ATOM     59  H   UNL     1     145.300 160.971 189.715  0.00  0.00    +0.023 HD
ATOM     60  H   UNL     1     146.659 159.868 189.587  0.00  0.00    +0.023 HD
ATOM     61  H   UNL     1     146.944 161.624 189.569  0.00  0.00    +0.023 HD
ENDBRANCH  30  58
BRANCH   9  62
ATOM     62  C   UNL     1     150.709 165.658 192.577  0.00  0.00    -0.057 C 
ATOM     63  H   UNL     1     151.389 166.302 193.147  0.00  0.00    +0.023 HD
ATOM     64  H   UNL     1     151.280 164.798 192.207  0.00  0.00    +0.023 HD
ATOM     65  H   UNL     1     149.969 165.277 193.289  0.00  0.00    +0.023 HD
ENDBRANCH   9  62
BRANCH   8  66
ATOM     66  C   UNL     1     147.765 165.626 192.369  0.00  0.00    +0.011 C 
ATOM     67  H   UNL     1     148.454 164.905 192.822  0.00  0.00    +0.033 HD
ATOM     68  H   UNL     1     147.246 165.101 191.554  0.00  0.00    +0.033 HD
BRANCH  66  69
ATOM     69  C   UNL     1     146.685 165.950 193.433  0.00  0.00    +0.064 C 
ATOM     70  H   UNL     1     146.786 167.034 193.586  0.00  0.00    +0.060 HD
BRANCH  69  71
ATOM     71  C   UNL     1     145.216 165.704 192.979  0.00  0.00    -0.017 C 
ATOM     72  H   UNL     1     145.170 164.717 192.500  0.00  0.00    +0.032 HD
BRANCH  71  73
ATOM     73  C   UNL     1     144.199 165.738 194.126  0.00  0.00    -0.060 C 
ATOM     74  H   UNL     1     144.663 165.451 195.071  0.00  0.00    +0.023 HD
ATOM     75  H   UNL     1     143.353 165.078 193.953  0.00  0.00    +0.023 HD
ATOM     76  H   UNL     1     143.789 166.746 194.245  0.00  0.00    +0.023 HD
ENDBRANCH  71  73
BRANCH  71  77
ATOM     77  C   UNL     1     144.838 166.777 191.914  0.00  0.00    -0.041 C 
ATOM     78  H   UNL     1     145.742 167.325 191.613  0.00  0.00    +0.027 HD
ATOM     79  H   UNL     1     144.172 167.515 192.376  0.00  0.00    +0.027 HD
BRANCH  77  80
ATOM     80  C   UNL     1     144.151 166.246 190.652  0.00  0.00    +0.007 C 
ATOM     81  H   UNL     1     144.713 166.535 189.763  0.00  0.00    +0.034 HD
ATOM     82  H   UNL     1     144.148 165.153 190.703  0.00  0.00    +0.034 HD
BRANCH  80  83
ATOM     83  C   UNL     1     142.699 166.684 190.526  0.00  0.00    +0.139 C 
ATOM     84  O   UNL     1     141.867 166.425 191.404  0.00  0.00    -0.297 OA
BRANCH  83  85
ATOM     85  C   UNL     1     142.254 167.440 189.270  0.00  0.00    +0.041 C 
ATOM     86  H   UNL     1     141.319 166.967 188.945  0.00  0.00    +0.040 HD
BRANCH  85  87
ATOM     87  C   UNL     1     143.244 167.235 188.122  0.00  0.00    -0.053 C 
ATOM     88  H   UNL     1     144.217 166.911 188.506  0.00  0.00    +0.024 HD
ATOM     89  H   UNL     1     142.879 166.466 187.434  0.00  0.00    +0.024 HD
ATOM     90  H   UNL     1     143.410 168.151 187.544  0.00  0.00    +0.024 HD
ENDBRANCH  85  87
BRANCH  85  91
ATOM     91  C   UNL     1     141.972 168.934 189.555  0.00  0.00    +0.074 C 
ATOM     92  H   UNL     1     140.894 169.032 189.754  0.00  0.00    +0.061 HD
BRANCH  91  93
ATOM     93  C   UNL     1     142.754 169.502 190.776  0.00  0.00    +0.003 C 
ATOM     94  H   UNL     1     142.948 168.683 191.481  0.00  0.00    +0.037 HD
BRANCH  93  95
ATOM     95  C   UNL     1     141.985 170.604 191.514  0.00  0.00    -0.057 C 
ATOM     96  H   UNL     1     142.549 171.543 191.522  0.00  0.00    +0.024 HD
ATOM     97  H   UNL     1     141.015 170.798 191.055  0.00  0.00    +0.024 HD
ATOM     98  H   UNL     1     141.793 170.317 192.554  0.00  0.00    +0.024 HD
ENDBRANCH  93  95
BRANCH  93  99
ATOM     99  C   UNL     1     144.095 170.080 190.347  0.00  0.00    -0.065 C 
ATOM    100  C   UNL     1     144.483 171.326 190.663  0.00  0.00    -0.005 C 
ATOM    101  H   UNL     1     144.718 169.423 189.751  0.00  0.00    +0.059 HD
ATOM    102  H   UNL     1     143.807 171.946 191.256  0.00  0.00    +0.078 HD
BRANCH 100 103
ATOM    103  N   UNL     1     145.664 171.955 190.307  0.00  0.00    -0.284 N 
ATOM    104  C   UNL     1     146.634 172.418 191.187  0.00  0.00    +0.206 C 
ATOM    105  O   UNL     1     147.727 172.865 190.874  0.00  0.00    -0.279 OA
ATOM    106  H   UNL     1     146.339 172.348 192.243  0.00  0.00    +0.126 HD
BRANCH 103 107
ATOM    107  C   UNL     1     145.964 172.044 188.883  0.00  0.00    +0.007 C 
ATOM    108  H   UNL     1     145.276 172.720 188.364  0.00  0.00    +0.043 HD
ATOM    109  H   UNL     1     145.892 171.056 188.416  0.00  0.00    +0.043 HD
ATOM    110  H   UNL     1     146.982 172.432 188.777  0.00  0.00    +0.043 HD
ENDBRANCH 103 107
ENDBRANCH 100 103
ENDBRANCH  93  99
ENDBRANCH  91  93
BRANCH  91 111
ATOM    111  O   UNL     1     142.321 169.685 188.378  0.00  0.00    -0.379 OA
BRANCH 111 112
ATOM    112  C   UNL     1     141.242 170.457 187.862  0.00  0.00    +0.037 C 
ATOM    113  H   UNL     1     141.322 170.471 186.774  0.00  0.00    +0.052 HD
ATOM    114  H   UNL     1     140.286 170.002 188.137  0.00  0.00    +0.052 HD
ATOM    115  H   UNL     1     141.286 171.486 188.229  0.00  0.00    +0.052 HD
ENDBRANCH 111 112
ENDBRANCH  91 111
ENDBRANCH  85  91
ENDBRANCH  83  85
ENDBRANCH  80  83
ENDBRANCH  77  80
ENDBRANCH  71  77
ENDBRANCH  69  71
BRANCH  69 116
ATOM    116  O   UNL     1     146.936 165.272 194.665  0.00  0.00    -0.379 OA
BRANCH 116 117
ATOM    117  C   UNL     1     147.960 165.892 195.436  0.00  0.00    +0.037 C 
ATOM    118  H   UNL     1     147.816 166.975 195.396  0.00  0.00    +0.052 HD
ATOM    119  H   UNL     1     148.944 165.659 195.020  0.00  0.00    +0.052 HD
ATOM    120  H   UNL     1     147.908 165.570 196.482  0.00  0.00    +0.052 HD
ENDBRANCH 116 117
ENDBRANCH  69 116
ENDBRANCH  66  69
ENDBRANCH   8  66
BRANCH  31 121
ATOM    121  O   UNL     1     146.703 161.975 185.587  0.00  0.00    -0.391 OA
ATOM    122  H   UNL     1     147.198 162.722 185.183  0.00  0.00    +0.210 HD
ENDBRANCH  31 121
BRANCH  29 123
ATOM    123  O   UNL     1     146.126 159.326 185.744  0.00  0.00    -0.373 OA
BRANCH 123 124
ATOM    124  C   UNL     1     144.758 158.959 185.565  0.00  0.00    +0.037 C 
ATOM    125  H   UNL     1     144.635 158.408 184.631  0.00  0.00    +0.052 HD
ATOM    126  H   UNL     1     144.162 159.874 185.507  0.00  0.00    +0.052 HD
ATOM    127  H   UNL     1     144.402 158.363 186.408  0.00  0.00    +0.052 HD
ENDBRANCH 123 124
ENDBRANCH  29 123
BRANCH  10 128
ATOM    128  O   UNL     1     151.186 168.379 192.346  0.00  0.00    -0.379 OA
BRANCH 128 129
ATOM    129  C   UNL     1     151.022 169.793 192.309  0.00  0.00    +0.037 C 
ATOM    130  H   UNL     1     151.093 170.158 191.281  0.00  0.00    +0.052 HD
ATOM    131  H   UNL     1     151.756 170.295 192.941  0.00  0.00    +0.052 HD
ATOM    132  H   UNL     1     150.029 170.024 192.694  0.00  0.00    +0.052 HD
ENDBRANCH 128 129
ENDBRANCH  10 128
BRANCH   3 133
ATOM    133  O   UNL     1     148.717 167.089 187.582  0.00  0.00    -0.447 OA
BRANCH 133 134
ATOM    134  C   UNL     1     149.256 167.384 186.379  0.00  0.00    +0.398 C 
ATOM    135  O   UNL     1     149.910 166.627 185.677  0.00  0.00    -0.227 OA
ATOM    136  N   UNL     1     148.993 168.665 186.048  0.00  0.00    -0.295 N 
ATOM    137  H   UNL     1     149.387 169.045 185.206  0.00  0.00    +0.148 HD
ATOM    138  H   UNL     1     148.553 169.280 186.722  0.00  0.00    +0.148 HD
ENDBRANCH 133 134
ENDBRANCH   3 133
TORSDOF 29
ENDMDL
MODEL 6
REMARK VINA RESULT:      -4.8      1.600      2.515
REMARK  Name = Kabiramide C_conf3
REMARK  29 active torsions:
REMARK  status: ('A' for Active; 'I' for Inactive)
REMARK    1  A    between atoms: C_1  and  C_2
REMARK    2  A    between atoms: C_4  and  O_64
REMARK    3  A    between atoms: C_9  and  C_41
REMARK    4  A    between atoms: C_10  and  C_40
REMARK    5  A    between atoms: C_11  and  O_38
REMARK    6  A    between atoms: C_30  and  O_36
REMARK    7  A    between atoms: C_31  and  C_35
REMARK    8  A    between atoms: C_32  and  O_34
REMARK    9  A    between atoms: O_36  and  C_37
REMARK   10  A    between atoms: O_38  and  C_39
REMARK   11  A    between atoms: C_41  and  C_42
REMARK   12  A    between atoms: C_42  and  C_43
REMARK   13  A    between atoms: C_42  and  O_62
REMARK   14  A    between atoms: C_43  and  C_44
REMARK   15  A    between atoms: C_43  and  C_45
REMARK   16  A    between atoms: C_45  and  C_46
REMARK   17  A    between atoms: C_46  and  C_47
REMARK   18  A    between atoms: C_47  and  C_49
REMARK   19  A    between atoms: C_49  and  C_50
REMARK   20  A    between atoms: C_49  and  C_51
REMARK   21  A    between atoms: C_51  and  C_52
REMARK   22  A    between atoms: C_51  and  O_60
REMARK   23  A    between atoms: C_52  and  C_53
REMARK   24  A    between atoms: C_52  and  C_54
REMARK   25  A    between atoms: C_55  and  N_56
REMARK   26  A    between atoms: N_56  and  C_57
REMARK   27  A    between atoms: O_60  and  C_61
REMARK   28  A    between atoms: O_62  and  C_63
REMARK   29  A    between atoms: O_64  and  C_65
REMARK                            x       y       z     vdW  Elec       q    Type
REMARK                         _______ _______ _______ _____ _____    ______ ____
ROOT
ATOM      1  C   UNL     1     148.669 161.476 187.641  0.00  0.00    -0.038 C 
ATOM      2  C   UNL     1     149.770 161.575 186.548  0.00  0.00    -0.012 C 
ATOM      3  C   UNL     1     151.121 160.892 186.854  0.00  0.00    +0.115 C 
ATOM      4  C   UNL     1     152.178 161.158 185.765  0.00  0.00    +0.082 C 
ATOM      5  C   UNL     1     152.892 162.491 185.799  0.00  0.00    +0.311 C 
ATOM      6  O   UNL     1     154.045 162.644 185.407  0.00  0.00    -0.251 OA
ATOM      7  O   UNL     1     152.108 163.478 186.279  0.00  0.00    -0.461 OA
ATOM      8  C   UNL     1     152.587 164.846 186.298  0.00  0.00    +0.110 C 
ATOM      9  C   UNL     1     152.823 165.194 187.810  0.00  0.00    +0.020 C 
ATOM     10  C   UNL     1     154.152 164.550 188.310  0.00  0.00    +0.068 C 
ATOM     11  C   UNL     1     154.278 164.271 189.840  0.00  0.00    -0.008 C 
ATOM     12  C   UNL     1     153.145 164.686 190.725  0.00  0.00    -0.077 C 
ATOM     13  C   UNL     1     153.256 165.456 191.821  0.00  0.00    -0.003 C 
ATOM     14  C   UNL     1     152.080 165.833 192.527  0.00  0.00    +0.220 A 
ATOM     15  N   UNL     1     150.847 165.708 192.068  0.00  0.00    -0.205 NA
ATOM     16  C   UNL     1     150.034 166.206 193.053  0.00  0.00    +0.164 A 
ATOM     17  C   UNL     1     150.793 166.619 194.109  0.00  0.00    +0.125 A 
ATOM     18  O   UNL     1     152.100 166.389 193.792  0.00  0.00    -0.443 OA
ATOM     19  C   UNL     1     148.484 166.245 192.944  0.00  0.00    +0.250 A 
ATOM     20  N   UNL     1     147.841 165.738 191.905  0.00  0.00    -0.203 NA
ATOM     21  C   UNL     1     146.517 165.926 192.197  0.00  0.00    +0.164 A 
ATOM     22  C   UNL     1     146.393 166.572 193.399  0.00  0.00    +0.125 A 
ATOM     23  O   UNL     1     147.650 166.781 193.894  0.00  0.00    -0.442 OA
ATOM     24  C   UNL     1     145.343 165.453 191.290  0.00  0.00    +0.249 A 
ATOM     25  N   UNL     1     145.516 164.783 190.167  0.00  0.00    -0.210 NA
ATOM     26  C   UNL     1     144.256 164.531 189.691  0.00  0.00    +0.109 A 
ATOM     27  C   UNL     1     143.342 165.081 190.561  0.00  0.00    +0.118 A 
ATOM     28  O   UNL     1     144.019 165.671 191.587  0.00  0.00    -0.442 OA
ATOM     29  C   UNL     1     143.983 163.783 188.415  0.00  0.00    +0.108 C 
ATOM     30  C   UNL     1     145.215 163.504 187.504  0.00  0.00    +0.014 C 
ATOM     31  C   UNL     1     146.318 162.590 188.136  0.00  0.00    +0.061 C 
ATOM     32  C   UNL     1     147.422 162.239 187.109  0.00  0.00    -0.024 C 
ATOM     33  H   UNL     1     149.032 161.989 188.543  0.00  0.00    +0.030 HD
ATOM     34  H   UNL     1     149.938 162.643 186.386  0.00  0.00    +0.030 HD
ATOM     35  H   UNL     1     149.384 161.172 185.605  0.00  0.00    +0.030 HD
ATOM     36  H   UNL     1     150.927 159.810 186.847  0.00  0.00    +0.074 HD
ATOM     37  H   UNL     1     151.745 161.031 184.768  0.00  0.00    +0.041 HD
ATOM     38  H   UNL     1     152.970 160.406 185.876  0.00  0.00    +0.041 HD
ATOM     39  H   UNL     1     153.526 164.964 185.754  0.00  0.00    +0.074 HD
ATOM     40  H   UNL     1     151.990 164.733 188.351  0.00  0.00    +0.036 HD
ATOM     41  H   UNL     1     154.279 163.581 187.815  0.00  0.00    +0.060 HD
ATOM     42  H   UNL     1     155.221 164.682 190.229  0.00  0.00    +0.033 HD
ATOM     43  H   UNL     1     154.368 163.182 189.955  0.00  0.00    +0.033 HD
ATOM     44  H   UNL     1     152.154 164.319 190.445  0.00  0.00    +0.057 HD
ATOM     45  H   UNL     1     154.209 165.830 192.166  0.00  0.00    +0.067 HD
ATOM     46  H   UNL     1     150.594 167.054 195.075  0.00  0.00    +0.105 HD
ATOM     47  H   UNL     1     145.566 166.913 194.000  0.00  0.00    +0.105 HD
ATOM     48  H   UNL     1     142.266 165.141 190.599  0.00  0.00    +0.105 HD
ATOM     49  H   UNL     1     143.290 164.424 187.849  0.00  0.00    +0.067 HD
ATOM     50  H   UNL     1     144.821 162.940 186.647  0.00  0.00    +0.035 HD
ATOM     51  H   UNL     1     146.788 163.085 188.990  0.00  0.00    +0.060 HD
ATOM     52  H   UNL     1     147.790 163.169 186.663  0.00  0.00    +0.029 HD
ATOM     53  H   UNL     1     146.970 161.650 186.300  0.00  0.00    +0.029 HD
ENDROOT
BRANCH   1  54
ATOM     54  C   UNL     1     148.358 160.024 188.003  0.00  0.00    -0.062 C 
ATOM     55  H   UNL     1     147.466 159.665 187.478  0.00  0.00    +0.023 HD
ATOM     56  H   UNL     1     148.195 159.913 189.077  0.00  0.00    +0.023 HD
ATOM     57  H   UNL     1     149.191 159.356 187.757  0.00  0.00    +0.023 HD
ENDBRANCH   1  54
BRANCH  30  58
ATOM     58  C   UNL     1     145.769 164.824 186.952  0.00  0.00    -0.057 C 
ATOM     59  H   UNL     1     145.829 164.814 185.856  0.00  0.00    +0.023 HD
ATOM     60  H   UNL     1     145.112 165.664 187.213  0.00  0.00    +0.023 HD
ATOM     61  H   UNL     1     146.772 165.040 187.341  0.00  0.00    +0.023 HD
ENDBRANCH  30  58
BRANCH   9  62
ATOM     62  C   UNL     1     152.802 166.705 188.078  0.00  0.00    -0.057 C 
ATOM     63  H   UNL     1     153.386 167.243 187.323  0.00  0.00    +0.023 HD
ATOM     64  H   UNL     1     153.213 166.946 189.066  0.00  0.00    +0.023 HD
ATOM     65  H   UNL     1     151.786 167.113 188.038  0.00  0.00    +0.023 HD
ENDBRANCH   9  62
BRANCH   8  66
ATOM     66  C   UNL     1     151.483 165.700 185.637  0.00  0.00    +0.011 C 
ATOM     67  H   UNL     1     151.400 165.460 184.572  0.00  0.00    +0.033 HD
ATOM     68  H   UNL     1     151.813 166.747 185.703  0.00  0.00    +0.033 HD
BRANCH  66  69
ATOM     69  C   UNL     1     150.047 165.661 186.221  0.00  0.00    +0.064 C 
ATOM     70  H   UNL     1     150.121 164.936 187.045  0.00  0.00    +0.060 HD
BRANCH  69  71
ATOM     71  C   UNL     1     149.555 166.997 186.853  0.00  0.00    -0.017 C 
ATOM     72  H   UNL     1     150.437 167.614 187.070  0.00  0.00    +0.032 HD
BRANCH  71  73
ATOM     73  C   UNL     1     148.607 167.797 185.952  0.00  0.00    -0.060 C 
ATOM     74  H   UNL     1     149.115 168.129 185.045  0.00  0.00    +0.023 HD
ATOM     75  H   UNL     1     148.200 168.673 186.449  0.00  0.00    +0.023 HD
ATOM     76  H   UNL     1     147.753 167.182 185.653  0.00  0.00    +0.023 HD
ENDBRANCH  71  73
BRANCH  71  77
ATOM     77  C   UNL     1     148.845 166.676 188.203  0.00  0.00    -0.041 C 
ATOM     78  H   UNL     1     149.548 166.838 189.032  0.00  0.00    +0.027 HD
ATOM     79  H   UNL     1     148.587 165.612 188.223  0.00  0.00    +0.027 HD
BRANCH  77  80
ATOM     80  C   UNL     1     147.569 167.476 188.489  0.00  0.00    +0.007 C 
ATOM     81  H   UNL     1     147.230 167.984 187.586  0.00  0.00    +0.034 HD
ATOM     82  H   UNL     1     146.788 166.771 188.788  0.00  0.00    +0.034 HD
BRANCH  80  83
ATOM     83  C   UNL     1     147.725 168.471 189.630  0.00  0.00    +0.139 C 
ATOM     84  O   UNL     1     148.756 168.518 190.311  0.00  0.00    -0.297 OA
BRANCH  83  85
ATOM     85  C   UNL     1     146.565 169.416 189.959  0.00  0.00    +0.041 C 
ATOM     86  H   UNL     1     146.606 169.584 191.042  0.00  0.00    +0.040 HD
BRANCH  85  87
ATOM     87  C   UNL     1     145.214 168.747 189.692  0.00  0.00    -0.053 C 
ATOM     88  H   UNL     1     144.835 168.269 190.602  0.00  0.00    +0.024 HD
ATOM     89  H   UNL     1     144.478 169.488 189.367  0.00  0.00    +0.024 HD
ATOM     90  H   UNL     1     145.277 167.973 188.919  0.00  0.00    +0.024 HD
ENDBRANCH  85  87
BRANCH  85  91
ATOM     91  C   UNL     1     146.704 170.782 189.247  0.00  0.00    +0.074 C 
ATOM     92  H   UNL     1     147.718 170.828 188.822  0.00  0.00    +0.061 HD
BRANCH  91  93
ATOM     93  C   UNL     1     145.675 171.003 188.099  0.00  0.00    +0.003 C 
ATOM     94  H   UNL     1     144.739 170.495 188.364  0.00  0.00    +0.037 HD
BRANCH  93  95
ATOM     95  C   UNL     1     146.160 170.454 186.753  0.00  0.00    -0.057 C 
ATOM     96  H   UNL     1     147.152 170.843 186.500  0.00  0.00    +0.024 HD
ATOM     97  H   UNL     1     146.217 169.364 186.757  0.00  0.00    +0.024 HD
ATOM     98  H   UNL     1     145.473 170.733 185.946  0.00  0.00    +0.024 HD
ENDBRANCH  93  95
BRANCH  93  99
ATOM     99  C   UNL     1     145.371 172.482 187.913  0.00  0.00    -0.065 C 
ATOM    100  C   UNL     1     145.329 173.070 186.707  0.00  0.00    -0.005 C 
ATOM    101  H   UNL     1     145.204 173.043 188.827  0.00  0.00    +0.059 HD
ATOM    102  H   UNL     1     145.518 172.455 185.824  0.00  0.00    +0.078 HD
BRANCH 100 103
ATOM    103  N   UNL     1     145.085 174.404 186.428  0.00  0.00    -0.284 N 
ATOM    104  C   UNL     1     143.907 175.087 186.700  0.00  0.00    +0.206 C 
ATOM    105  O   UNL     1     143.730 176.289 186.565  0.00  0.00    -0.279 OA
ATOM    106  H   UNL     1     143.099 174.441 187.071  0.00  0.00    +0.126 HD
BRANCH 103 107
ATOM    107  C   UNL     1     146.197 175.184 185.900  0.00  0.00    +0.007 C 
ATOM    108  H   UNL     1     146.845 175.562 186.697  0.00  0.00    +0.043 HD
ATOM    109  H   UNL     1     145.823 176.040 185.327  0.00  0.00    +0.043 HD
ATOM    110  H   UNL     1     146.787 174.531 185.249  0.00  0.00    +0.043 HD
ENDBRANCH 103 107
ENDBRANCH 100 103
ENDBRANCH  93  99
ENDBRANCH  91  93
BRANCH  91 111
ATOM    111  O   UNL     1     146.542 171.817 190.235  0.00  0.00    -0.379 OA
BRANCH 111 112
ATOM    112  C   UNL     1     147.771 172.240 190.814  0.00  0.00    +0.037 C 
ATOM    113  H   UNL     1     147.731 172.035 191.885  0.00  0.00    +0.052 HD
ATOM    114  H   UNL     1     148.606 171.681 190.382  0.00  0.00    +0.052 HD
ATOM    115  H   UNL     1     147.924 173.313 190.669  0.00  0.00    +0.052 HD
ENDBRANCH 111 112
ENDBRANCH  91 111
ENDBRANCH  85  91
ENDBRANCH  83  85
ENDBRANCH  80  83
ENDBRANCH  77  80
ENDBRANCH  71  77
ENDBRANCH  69  71
BRANCH  69 116
ATOM    116  O   UNL     1     149.098 165.195 185.263  0.00  0.00    -0.379 OA
BRANCH 116 117
ATOM    117  C   UNL     1     149.704 164.785 184.041  0.00  0.00    +0.037 C 
ATOM    118  H   UNL     1     150.675 164.340 184.269  0.00  0.00    +0.052 HD
ATOM    119  H   UNL     1     149.864 165.647 183.387  0.00  0.00    +0.052 HD
ATOM    120  H   UNL     1     149.086 164.037 183.533  0.00  0.00    +0.052 HD
ENDBRANCH 116 117
ENDBRANCH  69 116
ENDBRANCH  66  69
ENDBRANCH   8  66
BRANCH  31 121
ATOM    121  O   UNL     1     145.754 161.364 188.609  0.00  0.00    -0.391 OA
ATOM    122  H   UNL     1     146.473 160.701 188.708  0.00  0.00    +0.210 HD
ENDBRANCH  31 121
BRANCH  29 123
ATOM    123  O   UNL     1     143.311 162.546 188.725  0.00  0.00    -0.373 OA
BRANCH 123 124
ATOM    124  C   UNL     1     142.361 162.179 187.726  0.00  0.00    +0.037 C 
ATOM    125  H   UNL     1     141.645 161.462 188.131  0.00  0.00    +0.052 HD
ATOM    126  H   UNL     1     142.897 161.703 186.900  0.00  0.00    +0.052 HD
ATOM    127  H   UNL     1     141.841 163.060 187.342  0.00  0.00    +0.052 HD
ENDBRANCH 123 124
ENDBRANCH  29 123
BRANCH  10 128
ATOM    128  O   UNL     1     155.241 165.401 187.889  0.00  0.00    -0.379 OA
BRANCH 128 129
ATOM    129  C   UNL     1     156.268 165.521 188.867  0.00  0.00    +0.037 C 
ATOM    130  H   UNL     1     156.910 164.636 188.857  0.00  0.00    +0.052 HD
ATOM    131  H   UNL     1     155.852 165.675 189.864  0.00  0.00    +0.052 HD
ATOM    132  H   UNL     1     156.871 166.393 188.614  0.00  0.00    +0.052 HD
ENDBRANCH 128 129
ENDBRANCH  10 128
BRANCH   3 133
ATOM    133  O   UNL     1     151.584 161.276 188.161  0.00  0.00    -0.447 OA
BRANCH 133 134
ATOM    134  C   UNL     1     152.411 160.403 188.777  0.00  0.00    +0.398 C 
ATOM    135  O   UNL     1     153.515 160.656 189.235  0.00  0.00    -0.227 OA
ATOM    136  N   UNL     1     151.858 159.173 188.806  0.00  0.00    -0.295 N 
ATOM    137  H   UNL     1     152.388 158.406 189.179  0.00  0.00    +0.148 HD
ATOM    138  H   UNL     1     150.997 158.996 188.303  0.00  0.00    +0.148 HD
ENDBRANCH 133 134
ENDBRANCH   3 133
TORSDOF 29
ENDMDL
MODEL 7
REMARK VINA RESULT:      -4.7      3.273      7.381
REMARK  Name = Kabiramide C_conf3
REMARK  29 active torsions:
REMARK  status: ('A' for Active; 'I' for Inactive)
REMARK    1  A    between atoms: C_1  and  C_2
REMARK    2  A    between atoms: C_4  and  O_64
REMARK    3  A    between atoms: C_9  and  C_41
REMARK    4  A    between atoms: C_10  and  C_40
REMARK    5  A    between atoms: C_11  and  O_38
REMARK    6  A    between atoms: C_30  and  O_36
REMARK    7  A    between atoms: C_31  and  C_35
REMARK    8  A    between atoms: C_32  and  O_34
REMARK    9  A    between atoms: O_36  and  C_37
REMARK   10  A    between atoms: O_38  and  C_39
REMARK   11  A    between atoms: C_41  and  C_42
REMARK   12  A    between atoms: C_42  and  C_43
REMARK   13  A    between atoms: C_42  and  O_62
REMARK   14  A    between atoms: C_43  and  C_44
REMARK   15  A    between atoms: C_43  and  C_45
REMARK   16  A    between atoms: C_45  and  C_46
REMARK   17  A    between atoms: C_46  and  C_47
REMARK   18  A    between atoms: C_47  and  C_49
REMARK   19  A    between atoms: C_49  and  C_50
REMARK   20  A    between atoms: C_49  and  C_51
REMARK   21  A    between atoms: C_51  and  C_52
REMARK   22  A    between atoms: C_51  and  O_60
REMARK   23  A    between atoms: C_52  and  C_53
REMARK   24  A    between atoms: C_52  and  C_54
REMARK   25  A    between atoms: C_55  and  N_56
REMARK   26  A    between atoms: N_56  and  C_57
REMARK   27  A    between atoms: O_60  and  C_61
REMARK   28  A    between atoms: O_62  and  C_63
REMARK   29  A    between atoms: O_64  and  C_65
REMARK                            x       y       z     vdW  Elec       q    Type
REMARK                         _______ _______ _______ _____ _____    ______ ____
ROOT
ATOM      1  C   UNL     1     153.233 164.691 184.503  0.00  0.00    -0.038 C 
ATOM      2  C   UNL     1     154.332 165.731 184.861  0.00  0.00    -0.012 C 
ATOM      3  C   UNL     1     155.675 165.617 184.106  0.00  0.00    +0.115 C 
ATOM      4  C   UNL     1     156.731 166.609 184.625  0.00  0.00    +0.082 C 
ATOM      5  C   UNL     1     157.464 166.244 185.898  0.00  0.00    +0.311 C 
ATOM      6  O   UNL     1     158.617 166.593 186.131  0.00  0.00    -0.251 OA
ATOM      7  O   UNL     1     156.695 165.525 186.741  0.00  0.00    -0.461 OA
ATOM      8  C   UNL     1     157.192 165.165 188.054  0.00  0.00    +0.110 C 
ATOM      9  C   UNL     1     157.438 163.616 188.006  0.00  0.00    +0.020 C 
ATOM     10  C   UNL     1     158.759 163.303 187.239  0.00  0.00    +0.068 C 
ATOM     11  C   UNL     1     158.887 161.894 186.581  0.00  0.00    -0.008 C 
ATOM     12  C   UNL     1     157.762 160.925 186.773  0.00  0.00    -0.077 C 
ATOM     13  C   UNL     1     157.888 159.671 187.239  0.00  0.00    -0.003 C 
ATOM     14  C   UNL     1     156.720 158.886 187.440  0.00  0.00    +0.220 A 
ATOM     15  N   UNL     1     155.483 159.352 187.451  0.00  0.00    -0.205 NA
ATOM     16  C   UNL     1     154.680 158.268 187.693  0.00  0.00    +0.164 A 
ATOM     17  C   UNL     1     155.448 157.148 187.817  0.00  0.00    +0.125 A 
ATOM     18  O   UNL     1     156.751 157.521 187.658  0.00  0.00    -0.443 OA
ATOM     19  C   UNL     1     153.131 158.354 187.778  0.00  0.00    +0.250 A 
ATOM     20  N   UNL     1     152.477 159.483 187.558  0.00  0.00    -0.203 NA
ATOM     21  C   UNL     1     151.157 159.144 187.682  0.00  0.00    +0.164 A 
ATOM     22  C   UNL     1     151.046 157.817 188.005  0.00  0.00    +0.125 A 
ATOM     23  O   UNL     1     152.307 157.293 188.066  0.00  0.00    -0.442 OA
ATOM     24  C   UNL     1     149.974 160.133 187.468  0.00  0.00    +0.249 A 
ATOM     25  N   UNL     1     150.134 161.390 187.103  0.00  0.00    -0.210 NA
ATOM     26  C   UNL     1     148.869 161.906 186.994  0.00  0.00    +0.109 A 
ATOM     27  C   UNL     1     147.965 160.919 187.318  0.00  0.00    +0.118 A 
ATOM     28  O   UNL     1     148.654 159.782 187.621  0.00  0.00    -0.442 OA
ATOM     29  C   UNL     1     148.581 163.327 186.597  0.00  0.00    +0.108 C 
ATOM     30  C   UNL     1     149.806 164.287 186.542  0.00  0.00    +0.014 C 
ATOM     31  C   UNL     1     150.899 163.915 185.485  0.00  0.00    +0.061 C 
ATOM     32  C   UNL     1     151.995 165.004 185.391  0.00  0.00    -0.024 C 
ATOM     33  H   UNL     1     153.606 163.691 184.766  0.00  0.00    +0.030 HD
ATOM     34  H   UNL     1     154.513 165.619 185.933  0.00  0.00    +0.030 HD
ATOM     35  H   UNL     1     153.937 166.742 184.714  0.00  0.00    +0.030 HD
ATOM     36  H   UNL     1     155.466 165.895 183.064  0.00  0.00    +0.074 HD
ATOM     37  H   UNL     1     156.293 167.603 184.761  0.00  0.00    +0.041 HD
ATOM     38  H   UNL     1     157.513 166.697 183.860  0.00  0.00    +0.041 HD
ATOM     39  H   UNL     1     158.131 165.667 188.293  0.00  0.00    +0.074 HD
ATOM     40  H   UNL     1     156.601 163.202 187.433  0.00  0.00    +0.036 HD
ATOM     41  H   UNL     1     158.872 164.028 186.425  0.00  0.00    +0.060 HD
ATOM     42  H   UNL     1     159.837 161.421 186.869  0.00  0.00    +0.033 HD
ATOM     43  H   UNL     1     158.962 162.059 185.497  0.00  0.00    +0.033 HD
ATOM     44  H   UNL     1     156.765 161.283 186.501  0.00  0.00    +0.057 HD
ATOM     45  H   UNL     1     158.847 159.249 187.502  0.00  0.00    +0.067 HD
ATOM     46  H   UNL     1     155.258 156.102 187.996  0.00  0.00    +0.105 HD
ATOM     47  H   UNL     1     150.225 157.143 188.193  0.00  0.00    +0.105 HD
ATOM     48  H   UNL     1     146.890 160.860 187.380  0.00  0.00    +0.105 HD
ATOM     49  H   UNL     1     147.895 163.709 187.369  0.00  0.00    +0.067 HD
ATOM     50  H   UNL     1     149.402 165.257 186.218  0.00  0.00    +0.035 HD
ATOM     51  H   UNL     1     151.378 162.966 185.741  0.00  0.00    +0.060 HD
ATOM     52  H   UNL     1     152.374 165.203 186.398  0.00  0.00    +0.029 HD
ATOM     53  H   UNL     1     151.532 165.933 185.031  0.00  0.00    +0.029 HD
ENDROOT
BRANCH   1  54
ATOM     54  C   UNL     1     152.903 164.705 183.010  0.00  0.00    -0.062 C 
ATOM     55  H   UNL     1     152.165 163.936 182.758  0.00  0.00    +0.023 HD
ATOM     56  H   UNL     1     153.798 164.537 182.408  0.00  0.00    +0.023 HD
ATOM     57  H   UNL     1     152.507 165.676 182.691  0.00  0.00    +0.023 HD
ENDBRANCH   1  54
BRANCH  30  58
ATOM     58  C   UNL     1     150.377 164.492 187.952  0.00  0.00    -0.057 C 
ATOM     59  H   UNL     1     149.660 164.193 188.729  0.00  0.00    +0.023 HD
ATOM     60  H   UNL     1     151.269 163.871 188.107  0.00  0.00    +0.023 HD
ATOM     61  H   UNL     1     150.652 165.538 188.134  0.00  0.00    +0.023 HD
ENDBRANCH  30  58
BRANCH   9  62
ATOM     62  C   UNL     1     157.438 162.974 189.400  0.00  0.00    -0.057 C 
ATOM     63  H   UNL     1     156.677 162.188 189.466  0.00  0.00    +0.023 HD
ATOM     64  H   UNL     1     157.239 163.713 190.185  0.00  0.00    +0.023 HD
ATOM     65  H   UNL     1     158.398 162.500 189.632  0.00  0.00    +0.023 HD
ENDBRANCH   9  62
BRANCH   8  66
ATOM     66  C   UNL     1     156.098 165.581 189.061  0.00  0.00    +0.011 C 
ATOM     67  H   UNL     1     156.338 166.552 189.508  0.00  0.00    +0.033 HD
ATOM     68  H   UNL     1     156.121 164.841 189.875  0.00  0.00    +0.033 HD
BRANCH  66  69
ATOM     69  C   UNL     1     154.624 165.656 188.586  0.00  0.00    +0.064 C 
ATOM     70  H   UNL     1     154.632 165.121 187.624  0.00  0.00    +0.060 HD
BRANCH  69  71
ATOM     71  C   UNL     1     153.598 164.914 189.493  0.00  0.00    -0.017 C 
ATOM     72  H   UNL     1     152.601 165.320 189.277  0.00  0.00    +0.032 HD
BRANCH  71  73
ATOM     73  C   UNL     1     153.565 163.396 189.279  0.00  0.00    -0.060 C 
ATOM     74  H   UNL     1     154.525 163.030 188.912  0.00  0.00    +0.023 HD
ATOM     75  H   UNL     1     152.797 163.091 188.575  0.00  0.00    +0.023 HD
ATOM     76  H   UNL     1     153.347 162.882 190.221  0.00  0.00    +0.023 HD
ENDBRANCH  71  73
BRANCH  71  77
ATOM     77  C   UNL     1     153.936 165.225 190.983  0.00  0.00    -0.041 C 
ATOM     78  H   UNL     1     155.025 165.308 191.099  0.00  0.00    +0.027 HD
ATOM     79  H   UNL     1     153.624 164.376 191.600  0.00  0.00    +0.027 HD
BRANCH  77  80
ATOM     80  C   UNL     1     153.290 166.489 191.559  0.00  0.00    +0.007 C 
ATOM     81  H   UNL     1     154.056 167.173 191.927  0.00  0.00    +0.034 HD
ATOM     82  H   UNL     1     152.754 166.994 190.750  0.00  0.00    +0.034 HD
BRANCH  80  83
ATOM     83  C   UNL     1     152.269 166.201 192.650  0.00  0.00    +0.139 C 
ATOM     84  O   UNL     1     152.615 165.816 193.774  0.00  0.00    -0.297 OA
BRANCH  83  85
ATOM     85  C   UNL     1     150.778 166.367 192.339  0.00  0.00    +0.041 C 
ATOM     86  H   UNL     1     150.269 165.533 192.836  0.00  0.00    +0.040 HD
BRANCH  85  87
ATOM     87  C   UNL     1     150.503 166.191 190.844  0.00  0.00    -0.053 C 
ATOM     88  H   UNL     1     149.756 166.915 190.503  0.00  0.00    +0.024 HD
ATOM     89  H   UNL     1     151.418 166.351 190.265  0.00  0.00    +0.024 HD
ATOM     90  H   UNL     1     150.123 165.192 190.604  0.00  0.00    +0.024 HD
ENDBRANCH  85  87
BRANCH  85  91
ATOM     91  C   UNL     1     150.207 167.691 192.899  0.00  0.00    +0.074 C 
ATOM     92  H   UNL     1     150.789 167.944 193.798  0.00  0.00    +0.061 HD
BRANCH  91  93
ATOM     93  C   UNL     1     150.291 168.885 191.903  0.00  0.00    +0.003 C 
ATOM     94  H   UNL     1     150.332 168.488 190.880  0.00  0.00    +0.037 HD
BRANCH  93  95
ATOM     95  C   UNL     1     151.527 169.764 192.131  0.00  0.00    -0.057 C 
ATOM     96  H   UNL     1     152.342 169.191 192.584  0.00  0.00    +0.024 HD
ATOM     97  H   UNL     1     151.896 170.193 191.198  0.00  0.00    +0.024 HD
ATOM     98  H   UNL     1     151.292 170.602 192.797  0.00  0.00    +0.024 HD
ENDBRANCH  93  95
BRANCH  93  99
ATOM     99  C   UNL     1     149.063 169.776 192.011  0.00  0.00    -0.065 C 
ATOM    100  C   UNL     1     149.086 171.086 191.715  0.00  0.00    -0.005 C 
ATOM    101  H   UNL     1     148.160 169.287 192.361  0.00  0.00    +0.059 HD
ATOM    102  H   UNL     1     150.028 171.524 191.379  0.00  0.00    +0.078 HD
BRANCH 100 103
ATOM    103  N   UNL     1     148.038 171.986 191.800  0.00  0.00    -0.284 N 
ATOM    104  C   UNL     1     147.764 172.814 192.880  0.00  0.00    +0.206 C 
ATOM    105  O   UNL     1     146.914 173.691 192.912  0.00  0.00    -0.279 OA
ATOM    106  H   UNL     1     148.403 172.622 193.754  0.00  0.00    +0.126 HD
BRANCH 103 107
ATOM    107  C   UNL     1     147.211 172.154 190.610  0.00  0.00    +0.007 C 
ATOM    108  H   UNL     1     146.171 172.378 190.866  0.00  0.00    +0.043 HD
ATOM    109  H   UNL     1     147.227 171.242 190.004  0.00  0.00    +0.043 HD
ATOM    110  H   UNL     1     147.618 172.990 190.034  0.00  0.00    +0.043 HD
ENDBRANCH 103 107
ENDBRANCH 100 103
ENDBRANCH  93  99
ENDBRANCH  91  93
BRANCH  91 111
ATOM    111  O   UNL     1     148.831 167.467 193.256  0.00  0.00    -0.379 OA
BRANCH 111 112
ATOM    112  C   UNL     1     148.645 166.339 194.104  0.00  0.00    +0.037 C 
ATOM    113  H   UNL     1     147.575 166.209 194.268  0.00  0.00    +0.052 HD
ATOM    114  H   UNL     1     149.038 165.437 193.626  0.00  0.00    +0.052 HD
ATOM    115  H   UNL     1     149.131 166.493 195.071  0.00  0.00    +0.052 HD
ENDBRANCH 111 112
ENDBRANCH  91 111
ENDBRANCH  85  91
ENDBRANCH  83  85
ENDBRANCH  80  83
ENDBRANCH  77  80
ENDBRANCH  71  77
ENDBRANCH  69  71
BRANCH  69 116
ATOM    116  O   UNL     1     154.203 167.004 188.374  0.00  0.00    -0.379 OA
BRANCH 116 117
ATOM    117  C   UNL     1     152.832 167.101 188.002  0.00  0.00    +0.037 C 
ATOM    118  H   UNL     1     152.594 166.267 187.337  0.00  0.00    +0.052 HD
ATOM    119  H   UNL     1     152.649 168.036 187.463  0.00  0.00    +0.052 HD
ATOM    120  H   UNL     1     152.185 167.042 188.884  0.00  0.00    +0.052 HD
ENDBRANCH 116 117
ENDBRANCH  69 116
ENDBRANCH  66  69
ENDBRANCH   8  66
BRANCH  31 121
ATOM    121  O   UNL     1     150.320 163.763 184.186  0.00  0.00    -0.391 OA
ATOM    122  H   UNL     1     149.430 164.180 184.184  0.00  0.00    +0.210 HD
ENDBRANCH  31 121
BRANCH  29 123
ATOM    123  O   UNL     1     147.894 163.336 185.330  0.00  0.00    -0.373 OA
BRANCH 123 124
ATOM    124  C   UNL     1     146.964 164.414 185.224  0.00  0.00    +0.037 C 
ATOM    125  H   UNL     1     146.697 164.780 186.216  0.00  0.00    +0.052 HD
ATOM    126  H   UNL     1     146.059 164.040 184.738  0.00  0.00    +0.052 HD
ATOM    127  H   UNL     1     147.376 165.223 184.618  0.00  0.00    +0.052 HD
ENDBRANCH 123 124
ENDBRANCH  29 123
BRANCH  10 128
ATOM    128  O   UNL     1     159.858 163.503 188.155  0.00  0.00    -0.379 OA
BRANCH 128 129
ATOM    129  C   UNL     1     160.927 162.583 187.957  0.00  0.00    +0.037 C 
ATOM    130  H   UNL     1     161.869 163.011 188.308  0.00  0.00    +0.052 HD
ATOM    131  H   UNL     1     161.011 162.291 186.909  0.00  0.00    +0.052 HD
ATOM    132  H   UNL     1     160.711 161.688 188.541  0.00  0.00    +0.052 HD
ENDBRANCH 128 129
ENDBRANCH  10 128
BRANCH   3 133
ATOM    133  O   UNL     1     156.146 164.258 184.141  0.00  0.00    -0.447 OA
BRANCH 133 134
ATOM    134  C   UNL     1     156.790 163.825 183.035  0.00  0.00    +0.398 C 
ATOM    135  O   UNL     1     156.335 163.793 181.902  0.00  0.00    -0.227 OA
ATOM    136  N   UNL     1     158.030 163.399 183.350  0.00  0.00    -0.295 N 
ATOM    137  H   UNL     1     158.605 162.989 182.635  0.00  0.00    +0.148 HD
ATOM    138  H   UNL     1     158.309 163.334 184.322  0.00  0.00    +0.148 HD
ENDBRANCH 133 134
ENDBRANCH   3 133
TORSDOF 29
ENDMDL
MODEL 8
REMARK VINA RESULT:      -4.7      2.936      7.576
REMARK  Name = Kabiramide C_conf3
REMARK  29 active torsions:
REMARK  status: ('A' for Active; 'I' for Inactive)
REMARK    1  A    between atoms: C_1  and  C_2
REMARK    2  A    between atoms: C_4  and  O_64
REMARK    3  A    between atoms: C_9  and  C_41
REMARK    4  A    between atoms: C_10  and  C_40
REMARK    5  A    between atoms: C_11  and  O_38
REMARK    6  A    between atoms: C_30  and  O_36
REMARK    7  A    between atoms: C_31  and  C_35
REMARK    8  A    between atoms: C_32  and  O_34
REMARK    9  A    between atoms: O_36  and  C_37
REMARK   10  A    between atoms: O_38  and  C_39
REMARK   11  A    between atoms: C_41  and  C_42
REMARK   12  A    between atoms: C_42  and  C_43
REMARK   13  A    between atoms: C_42  and  O_62
REMARK   14  A    between atoms: C_43  and  C_44
REMARK   15  A    between atoms: C_43  and  C_45
REMARK   16  A    between atoms: C_45  and  C_46
REMARK   17  A    between atoms: C_46  and  C_47
REMARK   18  A    between atoms: C_47  and  C_49
REMARK   19  A    between atoms: C_49  and  C_50
REMARK   20  A    between atoms: C_49  and  C_51
REMARK   21  A    between atoms: C_51  and  C_52
REMARK   22  A    between atoms: C_51  and  O_60
REMARK   23  A    between atoms: C_52  and  C_53
REMARK   24  A    between atoms: C_52  and  C_54
REMARK   25  A    between atoms: C_55  and  N_56
REMARK   26  A    between atoms: N_56  and  C_57
REMARK   27  A    between atoms: O_60  and  C_61
REMARK   28  A    between atoms: O_62  and  C_63
REMARK   29  A    between atoms: O_64  and  C_65
REMARK                            x       y       z     vdW  Elec       q    Type
REMARK                         _______ _______ _______ _____ _____    ______ ____
ROOT
ATOM      1  C   UNL     1     147.372 164.210 187.384  0.00  0.00    -0.038 C 
ATOM      2  C   UNL     1     146.935 165.397 188.287  0.00  0.00    -0.012 C 
ATOM      3  C   UNL     1     147.478 166.795 187.915  0.00  0.00    +0.115 C 
ATOM      4  C   UNL     1     147.089 167.873 188.943  0.00  0.00    +0.082 C 
ATOM      5  C   UNL     1     147.900 167.944 190.218  0.00  0.00    +0.311 C 
ATOM      6  O   UNL     1     148.089 168.989 190.834  0.00  0.00    -0.251 OA
ATOM      7  O   UNL     1     148.355 166.734 190.602  0.00  0.00    -0.461 OA
ATOM      8  C   UNL     1     149.071 166.587 191.853  0.00  0.00    +0.110 C 
ATOM      9  C   UNL     1     150.561 166.293 191.459  0.00  0.00    +0.020 C 
ATOM     10  C   UNL     1     151.273 167.608 191.017  0.00  0.00    +0.068 C 
ATOM     11  C   UNL     1     152.501 167.470 190.064  0.00  0.00    -0.008 C 
ATOM     12  C   UNL     1     152.942 166.092 189.683  0.00  0.00    -0.077 C 
ATOM     13  C   UNL     1     154.191 165.612 189.812  0.00  0.00    -0.003 C 
ATOM     14  C   UNL     1     154.451 164.255 189.477  0.00  0.00    +0.220 A 
ATOM     15  N   UNL     1     153.527 163.330 189.283  0.00  0.00    -0.205 NA
ATOM     16  C   UNL     1     154.211 162.176 189.003  0.00  0.00    +0.164 A 
ATOM     17  C   UNL     1     155.553 162.423 189.021  0.00  0.00    +0.125 A 
ATOM     18  O   UNL     1     155.725 163.743 189.321  0.00  0.00    -0.443 OA
ATOM     19  C   UNL     1     153.514 160.823 188.692  0.00  0.00    +0.250 A 
ATOM     20  N   UNL     1     152.198 160.713 188.617  0.00  0.00    -0.203 NA
ATOM     21  C   UNL     1     151.982 159.401 188.290  0.00  0.00    +0.164 A 
ATOM     22  C   UNL     1     153.179 158.741 188.204  0.00  0.00    +0.125 A 
ATOM     23  O   UNL     1     154.175 159.642 188.455  0.00  0.00    -0.442 OA
ATOM     24  C   UNL     1     150.576 158.779 188.042  0.00  0.00    +0.249 A 
ATOM     25  N   UNL     1     149.456 159.474 188.083  0.00  0.00    -0.210 NA
ATOM     26  C   UNL     1     148.459 158.582 187.784  0.00  0.00    +0.109 A 
ATOM     27  C   UNL     1     149.026 157.344 187.579  0.00  0.00    +0.118 A 
ATOM     28  O   UNL     1     150.376 157.454 187.737  0.00  0.00    -0.442 OA
ATOM     29  C   UNL     1     147.003 158.953 187.720  0.00  0.00    +0.108 C 
ATOM     30  C   UNL     1     146.630 160.368 188.252  0.00  0.00    +0.014 C 
ATOM     31  C   UNL     1     147.261 161.565 187.464  0.00  0.00    +0.061 C 
ATOM     32  C   UNL     1     146.712 162.925 187.961  0.00  0.00    -0.024 C 
ATOM     33  H   UNL     1     148.464 164.104 187.460  0.00  0.00    +0.030 HD
ATOM     34  H   UNL     1     147.264 165.143 189.298  0.00  0.00    +0.030 HD
ATOM     35  H   UNL     1     145.841 165.448 188.317  0.00  0.00    +0.030 HD
ATOM     36  H   UNL     1     146.992 167.071 186.969  0.00  0.00    +0.074 HD
ATOM     37  H   UNL     1     146.033 167.782 189.218  0.00  0.00    +0.041 HD
ATOM     38  H   UNL     1     147.219 168.853 188.466  0.00  0.00    +0.041 HD
ATOM     39  H   UNL     1     149.036 167.494 192.459  0.00  0.00    +0.074 HD
ATOM     40  H   UNL     1     150.510 165.621 190.595  0.00  0.00    +0.036 HD
ATOM     41  H   UNL     1     150.548 168.236 190.487  0.00  0.00    +0.060 HD
ATOM     42  H   UNL     1     153.356 168.038 190.456  0.00  0.00    +0.033 HD
ATOM     43  H   UNL     1     152.227 167.970 189.125  0.00  0.00    +0.033 HD
ATOM     44  H   UNL     1     152.174 165.438 189.261  0.00  0.00    +0.057 HD
ATOM     45  H   UNL     1     155.001 166.214 190.197  0.00  0.00    +0.067 HD
ATOM     46  H   UNL     1     156.444 161.839 188.857  0.00  0.00    +0.105 HD
ATOM     47  H   UNL     1     153.478 157.729 187.979  0.00  0.00    +0.105 HD
ATOM     48  H   UNL     1     148.649 156.364 187.334  0.00  0.00    +0.105 HD
ATOM     49  H   UNL     1     146.490 158.214 188.354  0.00  0.00    +0.067 HD
ATOM     50  H   UNL     1     145.544 160.458 188.104  0.00  0.00    +0.035 HD
ATOM     51  H   UNL     1     148.348 161.571 187.575  0.00  0.00    +0.060 HD
ATOM     52  H   UNL     1     146.832 162.971 189.048  0.00  0.00    +0.029 HD
ATOM     53  H   UNL     1     145.634 162.962 187.753  0.00  0.00    +0.029 HD
ENDROOT
BRANCH   1  54
ATOM     54  C   UNL     1     147.011 164.448 185.918  0.00  0.00    -0.062 C 
ATOM     55  H   UNL     1     146.263 163.727 185.571  0.00  0.00    +0.023 HD
ATOM     56  H   UNL     1     147.891 164.368 185.278  0.00  0.00    +0.023 HD
ATOM     57  H   UNL     1     146.614 165.456 185.756  0.00  0.00    +0.023 HD
ENDBRANCH   1  54
BRANCH  30  58
ATOM     58  C   UNL     1     146.881 160.443 189.764  0.00  0.00    -0.057 C 
ATOM     59  H   UNL     1     147.579 159.664 190.100  0.00  0.00    +0.023 HD
ATOM     60  H   UNL     1     147.341 161.401 190.038  0.00  0.00    +0.023 HD
ATOM     61  H   UNL     1     145.953 160.332 190.339  0.00  0.00    +0.023 HD
ENDBRANCH  30  58
BRANCH   9  62
ATOM     62  C   UNL     1     151.340 165.587 192.578  0.00  0.00    -0.057 C 
ATOM     63  H   UNL     1     151.334 164.501 192.431  0.00  0.00    +0.023 HD
ATOM     64  H   UNL     1     150.914 165.804 193.565  0.00  0.00    +0.023 HD
ATOM     65  H   UNL     1     152.392 165.894 192.600  0.00  0.00    +0.023 HD
ENDBRANCH   9  62
BRANCH   8  66
ATOM     66  C   UNL     1     148.394 165.421 192.606  0.00  0.00    +0.011 C 
ATOM     67  H   UNL     1     149.133 164.659 192.875  0.00  0.00    +0.033 HD
ATOM     68  H   UNL     1     147.696 164.952 191.898  0.00  0.00    +0.033 HD
BRANCH  66  69
ATOM     69  C   UNL     1     147.573 165.726 193.885  0.00  0.00    +0.064 C 
ATOM     70  H   UNL     1     147.611 166.822 193.965  0.00  0.00    +0.060 HD
BRANCH  69  71
ATOM     71  C   UNL     1     146.066 165.342 193.810  0.00  0.00    -0.017 C 
ATOM     72  H   UNL     1     145.973 164.460 193.163  0.00  0.00    +0.032 HD
BRANCH  71  73
ATOM     73  C   UNL     1     145.440 165.015 195.171  0.00  0.00    -0.060 C 
ATOM     74  H   UNL     1     144.351 165.065 195.125  0.00  0.00    +0.023 HD
ATOM     75  H   UNL     1     145.774 165.688 195.956  0.00  0.00    +0.023 HD
ATOM     76  H   UNL     1     145.718 164.005 195.488  0.00  0.00    +0.023 HD
ENDBRANCH  71  73
BRANCH  71  77
ATOM     77  C   UNL     1     145.286 166.515 193.145  0.00  0.00    -0.041 C 
ATOM     78  H   UNL     1     145.905 167.422 193.166  0.00  0.00    +0.027 HD
ATOM     79  H   UNL     1     144.397 166.736 193.746  0.00  0.00    +0.027 HD
BRANCH  77  80
ATOM     80  C   UNL     1     144.830 166.275 191.701  0.00  0.00    +0.007 C 
ATOM     81  H   UNL     1     145.580 166.642 191.001  0.00  0.00    +0.034 HD
ATOM     82  H   UNL     1     144.736 165.196 191.552  0.00  0.00    +0.034 HD
BRANCH  80  83
ATOM     83  C   UNL     1     143.471 166.883 191.389  0.00  0.00    +0.139 C 
ATOM     84  O   UNL     1     142.421 166.339 191.751  0.00  0.00    -0.297 OA
BRANCH  83  85
ATOM     85  C   UNL     1     143.403 168.185 190.585  0.00  0.00    +0.041 C 
ATOM     86  H   UNL     1     144.433 168.553 190.512  0.00  0.00    +0.040 HD
BRANCH  85  87
ATOM     87  C   UNL     1     142.628 169.265 191.345  0.00  0.00    -0.053 C 
ATOM     88  H   UNL     1     141.575 169.265 191.047  0.00  0.00    +0.024 HD
ATOM     89  H   UNL     1     142.674 169.081 192.423  0.00  0.00    +0.024 HD
ATOM     90  H   UNL     1     143.021 170.270 191.159  0.00  0.00    +0.024 HD
ENDBRANCH  85  87
BRANCH  85  91
ATOM     91  C   UNL     1     142.862 167.962 189.153  0.00  0.00    +0.074 C 
ATOM     92  H   UNL     1     143.043 168.888 188.586  0.00  0.00    +0.061 HD
BRANCH  91  93
ATOM     93  C   UNL     1     143.541 166.780 188.399  0.00  0.00    +0.003 C 
ATOM     94  H   UNL     1     144.451 166.495 188.941  0.00  0.00    +0.037 HD
BRANCH  93  95
ATOM     95  C   UNL     1     143.928 167.138 186.959  0.00  0.00    -0.057 C 
ATOM     96  H   UNL     1     143.831 168.214 186.778  0.00  0.00    +0.024 HD
ATOM     97  H   UNL     1     144.957 166.851 186.733  0.00  0.00    +0.024 HD
ATOM     98  H   UNL     1     143.286 166.615 186.241  0.00  0.00    +0.024 HD
ENDBRANCH  93  95
BRANCH  93  99
ATOM     99  C   UNL     1     142.626 165.567 188.345  0.00  0.00    -0.065 C 
ATOM    100  C   UNL     1     143.014 164.345 188.745  0.00  0.00    -0.005 C 
ATOM    101  H   UNL     1     141.634 165.747 187.943  0.00  0.00    +0.059 HD
ATOM    102  H   UNL     1     144.028 164.223 189.129  0.00  0.00    +0.078 HD
BRANCH 100 103
ATOM    103  N   UNL     1     142.272 163.176 188.718  0.00  0.00    -0.284 N 
ATOM    104  C   UNL     1     142.534 162.032 189.461  0.00  0.00    +0.206 C 
ATOM    105  O   UNL     1     141.818 161.044 189.528  0.00  0.00    -0.279 OA
ATOM    106  H   UNL     1     143.479 162.077 190.020  0.00  0.00    +0.126 HD
BRANCH 103 107
ATOM    107  C   UNL     1     141.053 163.184 187.920  0.00  0.00    +0.007 C 
ATOM    108  H   UNL     1     140.615 162.183 187.835  0.00  0.00    +0.043 HD
ATOM    109  H   UNL     1     141.261 163.553 186.910  0.00  0.00    +0.043 HD
ATOM    110  H   UNL     1     140.331 163.841 188.414  0.00  0.00    +0.043 HD
ENDBRANCH 103 107
ENDBRANCH 100 103
ENDBRANCH  93  99
ENDBRANCH  91  93
BRANCH  91 111
ATOM    111  O   UNL     1     141.447 167.715 189.244  0.00  0.00    -0.379 OA
BRANCH 111 112
ATOM    112  C   UNL     1     140.675 168.529 188.368  0.00  0.00    +0.037 C 
ATOM    113  H   UNL     1     139.861 168.972 188.943  0.00  0.00    +0.052 HD
ATOM    114  H   UNL     1     141.292 169.334 187.958  0.00  0.00    +0.052 HD
ATOM    115  H   UNL     1     140.247 167.934 187.557  0.00  0.00    +0.052 HD
ENDBRANCH 111 112
ENDBRANCH  91 111
ENDBRANCH  85  91
ENDBRANCH  83  85
ENDBRANCH  80  83
ENDBRANCH  77  80
ENDBRANCH  71  77
ENDBRANCH  69  71
BRANCH  69 116
ATOM    116  O   UNL     1     148.167 165.146 195.047  0.00  0.00    -0.379 OA
BRANCH 116 117
ATOM    117  C   UNL     1     149.204 165.953 195.597  0.00  0.00    +0.037 C 
ATOM    118  H   UNL     1     149.268 165.751 196.668  0.00  0.00    +0.052 HD
ATOM    119  H   UNL     1     148.975 167.014 195.459  0.00  0.00    +0.052 HD
ATOM    120  H   UNL     1     150.168 165.714 195.136  0.00  0.00    +0.052 HD
ENDBRANCH 116 117
ENDBRANCH  69 116
ENDBRANCH  66  69
ENDBRANCH   8  66
BRANCH  31 121
ATOM    121  O   UNL     1     146.974 161.461 186.067  0.00  0.00    -0.391 OA
ATOM    122  H   UNL     1     147.687 161.912 185.562  0.00  0.00    +0.210 HD
ENDBRANCH  31 121
BRANCH  29 123
ATOM    123  O   UNL     1     146.533 158.798 186.366  0.00  0.00    -0.373 OA
BRANCH 123 124
ATOM    124  C   UNL     1     145.181 158.344 186.309  0.00  0.00    +0.037 C 
ATOM    125  H   UNL     1     144.499 159.158 186.556  0.00  0.00    +0.052 HD
ATOM    126  H   UNL     1     145.055 157.550 187.051  0.00  0.00    +0.052 HD
ATOM    127  H   UNL     1     144.949 157.939 185.323  0.00  0.00    +0.052 HD
ENDBRANCH 123 124
ENDBRANCH  29 123
BRANCH  10 128
ATOM    128  O   UNL     1     151.673 168.315 192.211  0.00  0.00    -0.379 OA
BRANCH 128 129
ATOM    129  C   UNL     1     151.402 169.711 192.153  0.00  0.00    +0.037 C 
ATOM    130  H   UNL     1     152.272 170.284 192.482  0.00  0.00    +0.052 HD
ATOM    131  H   UNL     1     150.528 169.972 192.753  0.00  0.00    +0.052 HD
ATOM    132  H   UNL     1     151.187 169.967 191.115  0.00  0.00    +0.052 HD
ENDBRANCH 128 129
ENDBRANCH  10 128
BRANCH   3 133
ATOM    133  O   UNL     1     148.901 166.733 187.709  0.00  0.00    -0.447 OA
BRANCH 133 134
ATOM    134  C   UNL     1     149.351 167.221 186.533  0.00  0.00    +0.398 C 
ATOM    135  O   UNL     1     149.093 168.318 186.061  0.00  0.00    -0.227 OA
ATOM    136  N   UNL     1     150.129 166.309 185.913  0.00  0.00    -0.295 N 
ATOM    137  H   UNL     1     150.484 166.510 184.995  0.00  0.00    +0.148 HD
ATOM    138  H   UNL     1     150.207 165.373 186.291  0.00  0.00    +0.148 HD
ENDBRANCH 133 134
ENDBRANCH   3 133
TORSDOF 29
ENDMDL
MODEL 9
REMARK VINA RESULT:      -4.6      2.900      9.025
REMARK  Name = Kabiramide C_conf3
REMARK  29 active torsions:
REMARK  status: ('A' for Active; 'I' for Inactive)
REMARK    1  A    between atoms: C_1  and  C_2
REMARK    2  A    between atoms: C_4  and  O_64
REMARK    3  A    between atoms: C_9  and  C_41
REMARK    4  A    between atoms: C_10  and  C_40
REMARK    5  A    between atoms: C_11  and  O_38
REMARK    6  A    between atoms: C_30  and  O_36
REMARK    7  A    between atoms: C_31  and  C_35
REMARK    8  A    between atoms: C_32  and  O_34
REMARK    9  A    between atoms: O_36  and  C_37
REMARK   10  A    between atoms: O_38  and  C_39
REMARK   11  A    between atoms: C_41  and  C_42
REMARK   12  A    between atoms: C_42  and  C_43
REMARK   13  A    between atoms: C_42  and  O_62
REMARK   14  A    between atoms: C_43  and  C_44
REMARK   15  A    between atoms: C_43  and  C_45
REMARK   16  A    between atoms: C_45  and  C_46
REMARK   17  A    between atoms: C_46  and  C_47
REMARK   18  A    between atoms: C_47  and  C_49
REMARK   19  A    between atoms: C_49  and  C_50
REMARK   20  A    between atoms: C_49  and  C_51
REMARK   21  A    between atoms: C_51  and  C_52
REMARK   22  A    between atoms: C_51  and  O_60
REMARK   23  A    between atoms: C_52  and  C_53
REMARK   24  A    between atoms: C_52  and  C_54
REMARK   25  A    between atoms: C_55  and  N_56
REMARK   26  A    between atoms: N_56  and  C_57
REMARK   27  A    between atoms: O_60  and  C_61
REMARK   28  A    between atoms: O_62  and  C_63
REMARK   29  A    between atoms: O_64  and  C_65
REMARK                            x       y       z     vdW  Elec       q    Type
REMARK                         _______ _______ _______ _____ _____    ______ ____
ROOT
ATOM      1  C   UNL     1     146.044 169.266 184.835  0.00  0.00    -0.038 C 
ATOM      2  C   UNL     1     144.648 169.936 184.970  0.00  0.00    -0.012 C 
ATOM      3  C   UNL     1     144.620 171.476 185.088  0.00  0.00    +0.115 C 
ATOM      4  C   UNL     1     143.204 172.024 185.344  0.00  0.00    +0.082 C 
ATOM      5  C   UNL     1     142.673 171.948 186.759  0.00  0.00    +0.311 C 
ATOM      6  O   UNL     1     141.882 172.764 187.222  0.00  0.00    -0.251 OA
ATOM      7  O   UNL     1     143.146 170.874 187.425  0.00  0.00    -0.461 OA
ATOM      8  C   UNL     1     142.674 170.580 188.763  0.00  0.00    +0.110 C 
ATOM      9  C   UNL     1     143.883 170.881 189.717  0.00  0.00    +0.020 C 
ATOM     10  C   UNL     1     144.031 172.419 189.931  0.00  0.00    +0.068 C 
ATOM     11  C   UNL     1     145.443 172.952 190.327  0.00  0.00    -0.008 C 
ATOM     12  C   UNL     1     146.540 171.953 190.526  0.00  0.00    -0.077 C 
ATOM     13  C   UNL     1     147.315 171.857 191.619  0.00  0.00    -0.003 C 
ATOM     14  C   UNL     1     148.273 170.809 191.701  0.00  0.00    +0.220 A 
ATOM     15  N   UNL     1     148.312 169.752 190.908  0.00  0.00    -0.205 NA
ATOM     16  C   UNL     1     149.370 168.999 191.346  0.00  0.00    +0.164 A 
ATOM     17  C   UNL     1     149.968 169.621 192.402  0.00  0.00    +0.125 A 
ATOM     18  O   UNL     1     149.284 170.776 192.643  0.00  0.00    -0.443 OA
ATOM     19  C   UNL     1     149.797 167.659 190.686  0.00  0.00    +0.250 A 
ATOM     20  N   UNL     1     149.195 167.185 189.607  0.00  0.00    -0.203 NA
ATOM     21  C   UNL     1     149.873 166.033 189.315  0.00  0.00    +0.164 A 
ATOM     22  C   UNL     1     150.854 165.822 190.248  0.00  0.00    +0.125 A 
ATOM     23  O   UNL     1     150.821 166.861 191.134  0.00  0.00    -0.442 OA
ATOM     24  C   UNL     1     149.567 165.121 188.091  0.00  0.00    +0.249 A 
ATOM     25  N   UNL     1     148.645 165.400 187.189  0.00  0.00    -0.210 NA
ATOM     26  C   UNL     1     148.708 164.383 186.272  0.00  0.00    +0.109 A 
ATOM     27  C   UNL     1     149.684 163.496 186.669  0.00  0.00    +0.118 A 
ATOM     28  O   UNL     1     150.243 163.954 187.825  0.00  0.00    -0.442 OA
ATOM     29  C   UNL     1     147.821 164.299 185.061  0.00  0.00    +0.108 C 
ATOM     30  C   UNL     1     146.634 165.306 185.007  0.00  0.00    +0.014 C 
ATOM     31  C   UNL     1     147.043 166.816 184.953  0.00  0.00    +0.061 C 
ATOM     32  C   UNL     1     145.812 167.731 184.742  0.00  0.00    -0.024 C 
ATOM     33  H   UNL     1     146.617 169.476 185.750  0.00  0.00    +0.030 HD
ATOM     34  H   UNL     1     144.191 169.501 185.862  0.00  0.00    +0.030 HD
ATOM     35  H   UNL     1     144.020 169.643 184.121  0.00  0.00    +0.030 HD
ATOM     36  H   UNL     1     144.937 171.865 184.111  0.00  0.00    +0.074 HD
ATOM     37  H   UNL     1     142.478 171.540 184.684  0.00  0.00    +0.041 HD
ATOM     38  H   UNL     1     143.209 173.093 185.098  0.00  0.00    +0.041 HD
ATOM     39  H   UNL     1     141.828 171.207 189.051  0.00  0.00    +0.074 HD
ATOM     40  H   UNL     1     144.772 170.519 189.189  0.00  0.00    +0.036 HD
ATOM     41  H   UNL     1     143.767 172.929 188.998  0.00  0.00    +0.060 HD
ATOM     42  H   UNL     1     145.373 173.605 191.209  0.00  0.00    +0.033 HD
ATOM     43  H   UNL     1     145.774 173.606 189.508  0.00  0.00    +0.033 HD
ATOM     44  H   UNL     1     146.715 171.257 189.701  0.00  0.00    +0.057 HD
ATOM     45  H   UNL     1     147.211 172.529 192.458  0.00  0.00    +0.067 HD
ATOM     46  H   UNL     1     150.812 169.411 193.041  0.00  0.00    +0.105 HD
ATOM     47  H   UNL     1     151.606 165.065 190.407  0.00  0.00    +0.105 HD
ATOM     48  H   UNL     1     150.076 162.570 186.280  0.00  0.00    +0.105 HD
ATOM     49  H   UNL     1     147.395 163.284 185.087  0.00  0.00    +0.067 HD
ATOM     50  H   UNL     1     146.125 165.104 184.054  0.00  0.00    +0.035 HD
ATOM     51  H   UNL     1     147.539 167.116 185.879  0.00  0.00    +0.060 HD
ATOM     52  H   UNL     1     145.060 167.481 185.497  0.00  0.00    +0.029 HD
ATOM     53  H   UNL     1     145.372 167.502 183.761  0.00  0.00    +0.029 HD
ENDROOT
BRANCH   1  54
ATOM     54  C   UNL     1     146.824 169.815 183.640  0.00  0.00    -0.062 C 
ATOM     55  H   UNL     1     147.902 169.660 183.764  0.00  0.00    +0.023 HD
ATOM     56  H   UNL     1     146.641 170.883 183.508  0.00  0.00    +0.023 HD
ATOM     57  H   UNL     1     146.517 169.341 182.702  0.00  0.00    +0.023 HD
ENDBRANCH   1  54
BRANCH  30  58
ATOM     58  C   UNL     1     145.629 164.993 186.124  0.00  0.00    -0.057 C 
ATOM     59  H   UNL     1     145.795 163.995 186.553  0.00  0.00    +0.023 HD
ATOM     60  H   UNL     1     145.734 165.702 186.955  0.00  0.00    +0.023 HD
ATOM     61  H   UNL     1     144.593 165.035 185.765  0.00  0.00    +0.023 HD
ENDBRANCH  30  58
BRANCH   9  62
ATOM     62  C   UNL     1     143.777 170.141 191.057  0.00  0.00    -0.057 C 
ATOM     63  H   UNL     1     143.488 170.828 191.860  0.00  0.00    +0.023 HD
ATOM     64  H   UNL     1     144.728 169.669 191.334  0.00  0.00    +0.023 HD
ATOM     65  H   UNL     1     143.017 169.353 191.030  0.00  0.00    +0.023 HD
ENDBRANCH   9  62
BRANCH   8  66
ATOM     66  C   UNL     1     142.253 169.094 188.757  0.00  0.00    +0.011 C 
ATOM     67  H   UNL     1     142.293 168.681 189.770  0.00  0.00    +0.033 HD
ATOM     68  H   UNL     1     143.007 168.556 188.163  0.00  0.00    +0.033 HD
BRANCH  66  69
ATOM     69  C   UNL     1     140.875 168.703 188.164  0.00  0.00    +0.064 C 
ATOM     70  H   UNL     1     140.715 169.443 187.365  0.00  0.00    +0.060 HD
BRANCH  69  71
ATOM     71  C   UNL     1     140.822 167.303 187.483  0.00  0.00    -0.017 C 
ATOM     72  H   UNL     1     139.961 166.760 187.895  0.00  0.00    +0.032 HD
BRANCH  71  73
ATOM     73  C   UNL     1     140.679 167.360 185.958  0.00  0.00    -0.060 C 
ATOM     74  H   UNL     1     139.900 168.065 185.662  0.00  0.00    +0.023 HD
ATOM     75  H   UNL     1     140.439 166.393 185.525  0.00  0.00    +0.023 HD
ATOM     76  H   UNL     1     141.618 167.683 185.497  0.00  0.00    +0.023 HD
ENDBRANCH  71  73
BRANCH  71  77
ATOM     77  C   UNL     1     142.115 166.518 187.858  0.00  0.00    -0.041 C 
ATOM     78  H   UNL     1     142.896 167.228 188.162  0.00  0.00    +0.027 HD
ATOM     79  H   UNL     1     142.492 166.011 186.963  0.00  0.00    +0.027 HD
BRANCH  77  80
ATOM     80  C   UNL     1     141.957 165.469 188.964  0.00  0.00    +0.007 C 
ATOM     81  H   UNL     1     140.903 165.249 189.131  0.00  0.00    +0.034 HD
ATOM     82  H   UNL     1     142.439 164.547 188.626  0.00  0.00    +0.034 HD
BRANCH  80  83
ATOM     83  C   UNL     1     142.630 165.864 190.270  0.00  0.00    +0.139 C 
ATOM     84  O   UNL     1     141.971 166.191 191.264  0.00  0.00    -0.297 OA
BRANCH  83  85
ATOM     85  C   UNL     1     144.160 165.884 190.345  0.00  0.00    +0.041 C 
ATOM     86  H   UNL     1     144.504 166.394 189.437  0.00  0.00    +0.040 HD
BRANCH  85  87
ATOM     87  C   UNL     1     144.735 164.467 190.268  0.00  0.00    -0.053 C 
ATOM     88  H   UNL     1     145.574 164.430 189.566  0.00  0.00    +0.024 HD
ATOM     89  H   UNL     1     145.101 164.149 191.250  0.00  0.00    +0.024 HD
ATOM     90  H   UNL     1     143.994 163.734 189.931  0.00  0.00    +0.024 HD
ENDBRANCH  85  87
BRANCH  85  91
ATOM     91  C   UNL     1     144.677 166.671 191.572  0.00  0.00    +0.074 C 
ATOM     92  H   UNL     1     143.867 167.344 191.894  0.00  0.00    +0.061 HD
BRANCH  91  93
ATOM     93  C   UNL     1     145.078 165.769 192.777  0.00  0.00    +0.003 C 
ATOM     94  H   UNL     1     145.159 164.732 192.427  0.00  0.00    +0.037 HD
BRANCH  93  95
ATOM     95  C   UNL     1     144.059 165.816 193.921  0.00  0.00    -0.057 C 
ATOM     96  H   UNL     1     143.218 165.140 193.730  0.00  0.00    +0.024 HD
ATOM     97  H   UNL     1     144.507 165.534 194.875  0.00  0.00    +0.024 HD
ATOM     98  H   UNL     1     143.657 166.828 194.044  0.00  0.00    +0.024 HD
ENDBRANCH  93  95
BRANCH  93  99
ATOM     99  C   UNL     1     146.429 166.180 193.343  0.00  0.00    -0.065 C 
ATOM    100  C   UNL     1     146.930 165.664 194.477  0.00  0.00    -0.005 C 
ATOM    101  H   UNL     1     146.962 166.937 192.776  0.00  0.00    +0.059 HD
ATOM    102  H   UNL     1     146.341 164.915 195.009  0.00  0.00    +0.078 HD
BRANCH 100 103
ATOM    103  N   UNL     1     148.131 165.983 195.088  0.00  0.00    -0.284 N 
ATOM    104  C   UNL     1     148.358 166.027 196.457  0.00  0.00    +0.206 C 
ATOM    105  O   UNL     1     149.442 166.191 196.996  0.00  0.00    -0.279 OA
ATOM    106  H   UNL     1     147.449 165.891 197.058  0.00  0.00    +0.126 HD
BRANCH 103 107
ATOM    107  C   UNL     1     149.282 166.188 194.217  0.00  0.00    +0.007 C 
ATOM    108  H   UNL     1     149.696 167.197 194.321  0.00  0.00    +0.043 HD
ATOM    109  H   UNL     1     148.999 166.039 193.169  0.00  0.00    +0.043 HD
ATOM    110  H   UNL     1     150.051 165.463 194.500  0.00  0.00    +0.043 HD
ENDBRANCH 103 107
ENDBRANCH 100 103
ENDBRANCH  93  99
ENDBRANCH  91  93
BRANCH  91 111
ATOM    111  O   UNL     1     145.818 167.444 191.158  0.00  0.00    -0.379 OA
BRANCH 111 112
ATOM    112  C   UNL     1     145.854 167.688 189.756  0.00  0.00    +0.037 C 
ATOM    113  H   UNL     1     146.053 166.741 189.251  0.00  0.00    +0.052 HD
ATOM    114  H   UNL     1     144.889 168.071 189.413  0.00  0.00    +0.052 HD
ATOM    115  H   UNL     1     146.650 168.393 189.502  0.00  0.00    +0.052 HD
ENDBRANCH 111 112
ENDBRANCH  91 111
ENDBRANCH  85  91
ENDBRANCH  83  85
ENDBRANCH  80  83
ENDBRANCH  77  80
ENDBRANCH  71  77
ENDBRANCH  69  71
BRANCH  69 116
ATOM    116  O   UNL     1     139.831 168.816 189.130  0.00  0.00    -0.379 OA
BRANCH 116 117
ATOM    117  C   UNL     1     138.961 169.915 188.876  0.00  0.00    +0.037 C 
ATOM    118  H   UNL     1     138.147 169.886 189.604  0.00  0.00    +0.052 HD
ATOM    119  H   UNL     1     138.531 169.836 187.873  0.00  0.00    +0.052 HD
ATOM    120  H   UNL     1     139.494 170.865 188.983  0.00  0.00    +0.052 HD
ENDBRANCH 116 117
ENDBRANCH  69 116
ENDBRANCH  66  69
ENDBRANCH   8  66
BRANCH  31 121
ATOM    121  O   UNL     1     147.957 167.058 183.881  0.00  0.00    -0.391 OA
ATOM    122  H   UNL     1     147.642 166.580 183.081  0.00  0.00    +0.210 HD
ENDBRANCH  31 121
BRANCH  29 123
ATOM    123  O   UNL     1     148.627 164.426 183.873  0.00  0.00    -0.373 OA
BRANCH 123 124
ATOM    124  C   UNL     1     148.125 163.643 182.790  0.00  0.00    +0.037 C 
ATOM    125  H   UNL     1     147.567 164.273 182.096  0.00  0.00    +0.052 HD
ATOM    126  H   UNL     1     147.444 162.891 183.198  0.00  0.00    +0.052 HD
ATOM    127  H   UNL     1     148.938 163.132 182.271  0.00  0.00    +0.052 HD
ENDBRANCH 123 124
ENDBRANCH  29 123
BRANCH  10 128
ATOM    128  O   UNL     1     143.072 172.819 190.934  0.00  0.00    -0.379 OA
BRANCH 128 129
ATOM    129  C   UNL     1     142.280 173.934 190.538  0.00  0.00    +0.037 C 
ATOM    130  H   UNL     1     141.512 174.141 191.287  0.00  0.00    +0.052 HD
ATOM    131  H   UNL     1     141.822 173.770 189.561  0.00  0.00    +0.052 HD
ATOM    132  H   UNL     1     142.937 174.800 190.462  0.00  0.00    +0.052 HD
ENDBRANCH 128 129
ENDBRANCH  10 128
BRANCH   3 133
ATOM    133  O   UNL     1     145.557 171.911 186.090  0.00  0.00    -0.447 OA
BRANCH 133 134
ATOM    134  C   UNL     1     146.082 173.143 185.916  0.00  0.00    +0.398 C 
ATOM    135  O   UNL     1     146.197 174.006 186.773  0.00  0.00    -0.227 OA
ATOM    136  N   UNL     1     146.457 173.316 184.632  0.00  0.00    -0.295 N 
ATOM    137  H   UNL     1     146.807 174.211 184.339  0.00  0.00    +0.148 HD
ATOM    138  H   UNL     1     146.226 172.613 183.940  0.00  0.00    +0.148 HD
ENDBRANCH 133 134
ENDBRANCH   3 133
TORSDOF 29
ENDMDL
MODEL 10
REMARK VINA RESULT:      -4.6      3.365      7.646
REMARK  Name = Kabiramide C_conf3
REMARK  29 active torsions:
REMARK  status: ('A' for Active; 'I' for Inactive)
REMARK    1  A    between atoms: C_1  and  C_2
REMARK    2  A    between atoms: C_4  and  O_64
REMARK    3  A    between atoms: C_9  and  C_41
REMARK    4  A    between atoms: C_10  and  C_40
REMARK    5  A    between atoms: C_11  and  O_38
REMARK    6  A    between atoms: C_30  and  O_36
REMARK    7  A    between atoms: C_31  and  C_35
REMARK    8  A    between atoms: C_32  and  O_34
REMARK    9  A    between atoms: O_36  and  C_37
REMARK   10  A    between atoms: O_38  and  C_39
REMARK   11  A    between atoms: C_41  and  C_42
REMARK   12  A    between atoms: C_42  and  C_43
REMARK   13  A    between atoms: C_42  and  O_62
REMARK   14  A    between atoms: C_43  and  C_44
REMARK   15  A    between atoms: C_43  and  C_45
REMARK   16  A    between atoms: C_45  and  C_46
REMARK   17  A    between atoms: C_46  and  C_47
REMARK   18  A    between atoms: C_47  and  C_49
REMARK   19  A    between atoms: C_49  and  C_50
REMARK   20  A    between atoms: C_49  and  C_51
REMARK   21  A    between atoms: C_51  and  C_52
REMARK   22  A    between atoms: C_51  and  O_60
REMARK   23  A    between atoms: C_52  and  C_53
REMARK   24  A    between atoms: C_52  and  C_54
REMARK   25  A    between atoms: C_55  and  N_56
REMARK   26  A    between atoms: N_56  and  C_57
REMARK   27  A    between atoms: O_60  and  C_61
REMARK   28  A    between atoms: O_62  and  C_63
REMARK   29  A    between atoms: O_64  and  C_65
REMARK                            x       y       z     vdW  Elec       q    Type
REMARK                         _______ _______ _______ _____ _____    ______ ____
ROOT
ATOM      1  C   UNL     1     153.207 164.725 184.447  0.00  0.00    -0.038 C 
ATOM      2  C   UNL     1     154.308 165.761 184.808  0.00  0.00    -0.012 C 
ATOM      3  C   UNL     1     155.647 165.651 184.046  0.00  0.00    +0.115 C 
ATOM      4  C   UNL     1     156.707 166.639 184.567  0.00  0.00    +0.082 C 
ATOM      5  C   UNL     1     157.445 166.264 185.834  0.00  0.00    +0.311 C 
ATOM      6  O   UNL     1     158.600 166.611 186.063  0.00  0.00    -0.251 OA
ATOM      7  O   UNL     1     156.679 165.540 186.675  0.00  0.00    -0.461 OA
ATOM      8  C   UNL     1     157.182 165.170 187.983  0.00  0.00    +0.110 C 
ATOM      9  C   UNL     1     157.427 163.621 187.923  0.00  0.00    +0.020 C 
ATOM     10  C   UNL     1     158.745 163.313 187.148  0.00  0.00    +0.068 C 
ATOM     11  C   UNL     1     158.868 161.908 186.479  0.00  0.00    -0.008 C 
ATOM     12  C   UNL     1     157.743 160.939 186.670  0.00  0.00    -0.077 C 
ATOM     13  C   UNL     1     157.869 159.682 187.127  0.00  0.00    -0.003 C 
ATOM     14  C   UNL     1     156.702 158.896 187.328  0.00  0.00    +0.220 A 
ATOM     15  N   UNL     1     155.465 159.363 187.347  0.00  0.00    -0.205 NA
ATOM     16  C   UNL     1     154.663 158.279 187.586  0.00  0.00    +0.164 A 
ATOM     17  C   UNL     1     155.430 157.156 187.698  0.00  0.00    +0.125 A 
ATOM     18  O   UNL     1     156.733 157.529 187.535  0.00  0.00    -0.443 OA
ATOM     19  C   UNL     1     153.114 158.365 187.678  0.00  0.00    +0.250 A 
ATOM     20  N   UNL     1     152.460 159.496 187.469  0.00  0.00    -0.203 NA
ATOM     21  C   UNL     1     151.141 159.157 187.597  0.00  0.00    +0.164 A 
ATOM     22  C   UNL     1     151.030 157.829 187.911  0.00  0.00    +0.125 A 
ATOM     23  O   UNL     1     152.290 157.303 187.963  0.00  0.00    -0.442 OA
ATOM     24  C   UNL     1     149.957 160.149 187.396  0.00  0.00    +0.249 A 
ATOM     25  N   UNL     1     150.117 161.409 187.038  0.00  0.00    -0.210 NA
ATOM     26  C   UNL     1     148.852 161.926 186.939  0.00  0.00    +0.109 A 
ATOM     27  C   UNL     1     147.948 160.938 187.260  0.00  0.00    +0.118 A 
ATOM     28  O   UNL     1     148.638 159.798 187.551  0.00  0.00    -0.442 OA
ATOM     29  C   UNL     1     148.564 163.351 186.553  0.00  0.00    +0.108 C 
ATOM     30  C   UNL     1     149.789 164.310 186.499  0.00  0.00    +0.014 C 
ATOM     31  C   UNL     1     150.877 163.944 185.434  0.00  0.00    +0.061 C 
ATOM     32  C   UNL     1     151.973 165.033 185.343  0.00  0.00    -0.024 C 
ATOM     33  H   UNL     1     153.580 163.723 184.702  0.00  0.00    +0.030 HD
ATOM     34  H   UNL     1     154.495 165.641 185.878  0.00  0.00    +0.030 HD
ATOM     35  H   UNL     1     153.914 166.774 184.670  0.00  0.00    +0.030 HD
ATOM     36  H   UNL     1     155.434 165.937 183.007  0.00  0.00    +0.074 HD
ATOM     37  H   UNL     1     156.271 167.633 184.711  0.00  0.00    +0.041 HD
ATOM     38  H   UNL     1     157.486 166.732 183.799  0.00  0.00    +0.041 HD
ATOM     39  H   UNL     1     158.124 165.670 188.222  0.00  0.00    +0.074 HD
ATOM     40  H   UNL     1     156.587 163.213 187.351  0.00  0.00    +0.036 HD
ATOM     41  H   UNL     1     158.854 164.043 186.339  0.00  0.00    +0.060 HD
ATOM     42  H   UNL     1     159.818 161.432 186.759  0.00  0.00    +0.033 HD
ATOM     43  H   UNL     1     158.938 162.081 185.396  0.00  0.00    +0.033 HD
ATOM     44  H   UNL     1     156.745 161.299 186.405  0.00  0.00    +0.057 HD
ATOM     45  H   UNL     1     158.829 159.257 187.382  0.00  0.00    +0.067 HD
ATOM     46  H   UNL     1     155.240 156.109 187.870  0.00  0.00    +0.105 HD
ATOM     47  H   UNL     1     150.209 157.154 188.098  0.00  0.00    +0.105 HD
ATOM     48  H   UNL     1     146.874 160.880 187.327  0.00  0.00    +0.105 HD
ATOM     49  H   UNL     1     147.882 163.727 187.331  0.00  0.00    +0.067 HD
ATOM     50  H   UNL     1     149.385 165.282 186.184  0.00  0.00    +0.035 HD
ATOM     51  H   UNL     1     151.356 162.993 185.682  0.00  0.00    +0.060 HD
ATOM     52  H   UNL     1     152.357 165.224 186.350  0.00  0.00    +0.029 HD
ATOM     53  H   UNL     1     151.509 165.965 184.992  0.00  0.00    +0.029 HD
ENDROOT
BRANCH   1  54
ATOM     54  C   UNL     1     152.870 164.750 182.956  0.00  0.00    -0.062 C 
ATOM     55  H   UNL     1     153.550 164.109 182.384  0.00  0.00    +0.023 HD
ATOM     56  H   UNL     1     152.931 165.763 182.556  0.00  0.00    +0.023 HD
ATOM     57  H   UNL     1     151.844 164.415 182.766  0.00  0.00    +0.023 HD
ENDBRANCH   1  54
BRANCH  30  58
ATOM     58  C   UNL     1     150.366 164.504 187.908  0.00  0.00    -0.057 C 
ATOM     59  H   UNL     1     149.987 165.420 188.381  0.00  0.00    +0.023 HD
ATOM     60  H   UNL     1     150.073 163.677 188.568  0.00  0.00    +0.023 HD
ATOM     61  H   UNL     1     151.462 164.561 187.896  0.00  0.00    +0.023 HD
ENDBRANCH  30  58
BRANCH   9  62
ATOM     62  C   UNL     1     157.433 162.969 189.312  0.00  0.00    -0.057 C 
ATOM     63  H   UNL     1     157.576 163.723 190.095  0.00  0.00    +0.023 HD
ATOM     64  H   UNL     1     158.231 162.222 189.405  0.00  0.00    +0.023 HD
ATOM     65  H   UNL     1     156.486 162.466 189.532  0.00  0.00    +0.023 HD
ENDBRANCH   9  62
BRANCH   8  66
ATOM     66  C   UNL     1     156.094 165.580 188.998  0.00  0.00    +0.011 C 
ATOM     67  H   UNL     1     156.363 166.521 189.490  0.00  0.00    +0.033 HD
ATOM     68  H   UNL     1     156.082 164.805 189.778  0.00  0.00    +0.033 HD
BRANCH  66  69
ATOM     69  C   UNL     1     154.628 165.729 188.514  0.00  0.00    +0.064 C 
ATOM     70  H   UNL     1     154.692 165.546 187.431  0.00  0.00    +0.060 HD
BRANCH  69  71
ATOM     71  C   UNL     1     153.635 164.672 189.080  0.00  0.00    -0.017 C 
ATOM     72  H   UNL     1     152.615 165.009 188.849  0.00  0.00    +0.032 HD
BRANCH  71  73
ATOM     73  C   UNL     1     153.827 163.266 188.500  0.00  0.00    -0.060 C 
ATOM     74  H   UNL     1     152.880 162.853 188.148  0.00  0.00    +0.023 HD
ATOM     75  H   UNL     1     154.248 162.571 189.221  0.00  0.00    +0.023 HD
ATOM     76  H   UNL     1     154.519 163.293 187.653  0.00  0.00    +0.023 HD
ENDBRANCH  71  73
BRANCH  71  77
ATOM     77  C   UNL     1     153.789 164.623 190.630  0.00  0.00    -0.041 C 
ATOM     78  H   UNL     1     154.666 165.215 190.927  0.00  0.00    +0.027 HD
ATOM     79  H   UNL     1     153.999 163.592 190.933  0.00  0.00    +0.027 HD
BRANCH  77  80
ATOM     80  C   UNL     1     152.580 165.114 191.434  0.00  0.00    +0.007 C 
ATOM     81  H   UNL     1     151.670 165.026 190.841  0.00  0.00    +0.034 HD
ATOM     82  H   UNL     1     152.471 164.467 192.309  0.00  0.00    +0.034 HD
BRANCH  80  83
ATOM     83  C   UNL     1     152.739 166.535 191.955  0.00  0.00    +0.139 C 
ATOM     84  O   UNL     1     153.721 166.871 192.628  0.00  0.00    -0.297 OA
BRANCH  83  85
ATOM     85  C   UNL     1     151.644 167.564 191.660  0.00  0.00    +0.041 C 
ATOM     86  H   UNL     1     151.757 167.836 190.603  0.00  0.00    +0.040 HD
BRANCH  85  87
ATOM     87  C   UNL     1     151.873 168.856 192.448  0.00  0.00    -0.053 C 
ATOM     88  H   UNL     1     151.765 168.675 193.522  0.00  0.00    +0.024 HD
ATOM     89  H   UNL     1     152.882 169.240 192.269  0.00  0.00    +0.024 HD
ATOM     90  H   UNL     1     151.161 169.643 192.176  0.00  0.00    +0.024 HD
ENDBRANCH  85  87
BRANCH  85  91
ATOM     91  C   UNL     1     150.224 166.985 191.865  0.00  0.00    +0.074 C 
ATOM     92  H   UNL     1     150.238 165.948 191.495  0.00  0.00    +0.061 HD
BRANCH  91  93
ATOM     93  C   UNL     1     149.756 166.973 193.351  0.00  0.00    +0.003 C 
ATOM     94  H   UNL     1     150.115 167.889 193.839  0.00  0.00    +0.037 HD
BRANCH  93  95
ATOM     95  C   UNL     1     150.289 165.767 194.133  0.00  0.00    -0.057 C 
ATOM     96  H   UNL     1     149.803 165.683 195.111  0.00  0.00    +0.024 HD
ATOM     97  H   UNL     1     150.127 164.832 193.595  0.00  0.00    +0.024 HD
ATOM     98  H   UNL     1     151.369 165.856 194.300  0.00  0.00    +0.024 HD
ENDBRANCH  93  95
BRANCH  93  99
ATOM     99  C   UNL     1     148.238 166.954 193.446  0.00  0.00    -0.065 C 
ATOM    100  C   UNL     1     147.546 165.858 193.799  0.00  0.00    -0.005 C 
ATOM    101  H   UNL     1     147.742 167.885 193.194  0.00  0.00    +0.059 HD
ATOM    102  H   UNL     1     148.101 164.947 194.030  0.00  0.00    +0.078 HD
BRANCH 100 103
ATOM    103  N   UNL     1     146.171 165.726 193.895  0.00  0.00    -0.284 N 
ATOM    104  C   UNL     1     145.248 166.139 192.944  0.00  0.00    +0.206 C 
ATOM    105  O   UNL     1     144.046 165.919 192.971  0.00  0.00    -0.279 OA
ATOM    106  H   UNL     1     145.695 166.705 192.114  0.00  0.00    +0.126 HD
BRANCH 103 107
ATOM    107  C   UNL     1     145.655 164.997 195.047  0.00  0.00    +0.007 C 
ATOM    108  H   UNL     1     145.171 165.665 195.768  0.00  0.00    +0.043 HD
ATOM    109  H   UNL     1     146.468 164.471 195.560  0.00  0.00    +0.043 HD
ATOM    110  H   UNL     1     144.916 164.277 194.686  0.00  0.00    +0.043 HD
ENDBRANCH 103 107
ENDBRANCH 100 103
ENDBRANCH  93  99
ENDBRANCH  91  93
BRANCH  91 111
ATOM    111  O   UNL     1     149.305 167.770 191.084  0.00  0.00    -0.379 OA
BRANCH 111 112
ATOM    112  C   UNL     1     149.093 167.252 189.776  0.00  0.00    +0.037 C 
ATOM    113  H   UNL     1     148.800 166.205 189.867  0.00  0.00    +0.052 HD
ATOM    114  H   UNL     1     148.286 167.798 189.279  0.00  0.00    +0.052 HD
ATOM    115  H   UNL     1     150.007 167.309 189.179  0.00  0.00    +0.052 HD
ENDBRANCH 111 112
ENDBRANCH  91 111
ENDBRANCH  85  91
ENDBRANCH  83  85
ENDBRANCH  80  83
ENDBRANCH  77  80
ENDBRANCH  71  77
ENDBRANCH  69  71
BRANCH  69 116
ATOM    116  O   UNL     1     154.125 167.045 188.744  0.00  0.00    -0.379 OA
BRANCH 116 117
ATOM    117  C   UNL     1     152.839 167.252 188.167  0.00  0.00    +0.037 C 
ATOM    118  H   UNL     1     152.507 168.262 188.416  0.00  0.00    +0.052 HD
ATOM    119  H   UNL     1     152.118 166.540 188.578  0.00  0.00    +0.052 HD
ATOM    120  H   UNL     1     152.883 167.155 187.077  0.00  0.00    +0.052 HD
ENDBRANCH 116 117
ENDBRANCH  69 116
ENDBRANCH  66  69
ENDBRANCH   8  66
BRANCH  31 121
ATOM    121  O   UNL     1     150.292 163.802 184.137  0.00  0.00    -0.391 OA
ATOM    122  H   UNL     1     149.366 163.486 184.239  0.00  0.00    +0.210 HD
ENDBRANCH  31 121
BRANCH  29 123
ATOM    123  O   UNL     1     147.871 163.369 185.289  0.00  0.00    -0.373 OA
BRANCH 123 124
ATOM    124  C   UNL     1     146.937 164.445 185.197  0.00  0.00    +0.037 C 
ATOM    125  H   UNL     1     147.371 165.273 184.634  0.00  0.00    +0.052 HD
ATOM    126  H   UNL     1     146.716 164.794 186.209  0.00  0.00    +0.052 HD
ATOM    127  H   UNL     1     146.007 164.114 184.731  0.00  0.00    +0.052 HD
ENDBRANCH 123 124
ENDBRANCH  29 123
BRANCH  10 128
ATOM    128  O   UNL     1     159.848 163.505 188.061  0.00  0.00    -0.379 OA
BRANCH 128 129
ATOM    129  C   UNL     1     160.914 162.585 187.851  0.00  0.00    +0.037 C 
ATOM    130  H   UNL     1     161.240 162.155 188.801  0.00  0.00    +0.052 HD
ATOM    131  H   UNL     1     161.755 163.061 187.343  0.00  0.00    +0.052 HD
ATOM    132  H   UNL     1     160.544 161.783 187.213  0.00  0.00    +0.052 HD
ENDBRANCH 128 129
ENDBRANCH  10 128
BRANCH   3 133
ATOM    133  O   UNL     1     156.118 164.291 184.069  0.00  0.00    -0.447 OA
BRANCH 133 134
ATOM    134  C   UNL     1     156.490 163.773 182.879  0.00  0.00    +0.398 C 
ATOM    135  O   UNL     1     157.289 164.264 182.096  0.00  0.00    -0.227 OA
ATOM    136  N   UNL     1     155.832 162.618 182.644  0.00  0.00    -0.295 N 
ATOM    137  H   UNL     1     155.961 162.151 181.764  0.00  0.00    +0.148 HD
ATOM    138  H   UNL     1     155.092 162.324 183.269  0.00  0.00    +0.148 HD
ENDBRANCH 133 134
ENDBRANCH   3 133
TORSDOF 29
ENDMDL
