MODEL 1
REMARK VINA RESULT:      -5.2      0.000      0.000
REMARK  Name = Kabiramide C_conf1
REMARK  29 active torsions:
REMARK  status: ('A' for Active; 'I' for Inactive)
REMARK    1  A    between atoms: C_1  and  C_2
REMARK    2  A    between atoms: C_4  and  O_64
REMARK    3  A    between atoms: C_9  and  C_41
REMARK    4  A    between atoms: C_10  and  C_40
REMARK    5  A    between atoms: C_11  and  O_38
REMARK    6  A    between atoms: C_30  and  O_36
REMARK    7  A    between atoms: C_31  and  C_35
REMARK    8  A    between atoms: C_32  and  O_34
REMARK    9  A    between atoms: O_36  and  C_37
REMARK   10  A    between atoms: O_38  and  C_39
REMARK   11  A    between atoms: C_41  and  C_42
REMARK   12  A    between atoms: C_42  and  C_43
REMARK   13  A    between atoms: C_42  and  O_62
REMARK   14  A    between atoms: C_43  and  C_44
REMARK   15  A    between atoms: C_43  and  C_45
REMARK   16  A    between atoms: C_45  and  C_46
REMARK   17  A    between atoms: C_46  and  C_47
REMARK   18  A    between atoms: C_47  and  C_49
REMARK   19  A    between atoms: C_49  and  C_50
REMARK   20  A    between atoms: C_49  and  C_51
REMARK   21  A    between atoms: C_51  and  C_52
REMARK   22  A    between atoms: C_51  and  O_60
REMARK   23  A    between atoms: C_52  and  C_53
REMARK   24  A    between atoms: C_52  and  C_54
REMARK   25  A    between atoms: C_55  and  N_56
REMARK   26  A    between atoms: N_56  and  C_57
REMARK   27  A    between atoms: O_60  and  C_61
REMARK   28  A    between atoms: O_62  and  C_63
REMARK   29  A    between atoms: O_64  and  C_65
REMARK                            x       y       z     vdW  Elec       q    Type
REMARK                         _______ _______ _______ _____ _____    ______ ____
ROOT
ATOM      1  C   UNL     1     149.177 170.730 192.040  0.00  0.00    -0.038 C 
ATOM      2  C   UNL     1     147.639 170.659 191.786  0.00  0.00    -0.012 C 
ATOM      3  C   UNL     1     147.106 170.176 190.409  0.00  0.00    +0.115 C 
ATOM      4  C   UNL     1     146.974 171.276 189.356  0.00  0.00    +0.082 C 
ATOM      5  C   UNL     1     145.716 172.093 189.490  0.00  0.00    +0.311 C 
ATOM      6  O   UNL     1     145.611 173.050 190.246  0.00  0.00    -0.251 OA
ATOM      7  O   UNL     1     144.774 171.675 188.598  0.00  0.00    -0.461 OA
ATOM      8  C   UNL     1     143.682 172.580 188.300  0.00  0.00    +0.110 C 
ATOM      9  C   UNL     1     142.357 172.156 189.007  0.00  0.00    +0.020 C 
ATOM     10  C   UNL     1     141.605 170.908 188.456  0.00  0.00    +0.068 C 
ATOM     11  C   UNL     1     142.430 169.613 188.324  0.00  0.00    -0.008 C 
ATOM     12  C   UNL     1     142.784 168.899 189.593  0.00  0.00    -0.077 C 
ATOM     13  C   UNL     1     141.915 168.498 190.538  0.00  0.00    -0.003 C 
ATOM     14  C   UNL     1     142.368 167.741 191.656  0.00  0.00    +0.220 A 
ATOM     15  N   UNL     1     143.628 167.452 191.938  0.00  0.00    -0.205 NA
ATOM     16  C   UNL     1     143.584 166.636 193.035  0.00  0.00    +0.164 A 
ATOM     17  C   UNL     1     142.289 166.472 193.437  0.00  0.00    +0.125 A 
ATOM     18  O   UNL     1     141.495 167.182 192.583  0.00  0.00    -0.443 OA
ATOM     19  C   UNL     1     144.849 166.007 193.682  0.00  0.00    +0.250 A 
ATOM     20  N   UNL     1     146.059 166.251 193.219  0.00  0.00    -0.203 NA
ATOM     21  C   UNL     1     146.890 165.526 194.028  0.00  0.00    +0.164 A 
ATOM     22  C   UNL     1     146.156 164.847 194.964  0.00  0.00    +0.125 A 
ATOM     23  O   UNL     1     144.837 165.146 194.759  0.00  0.00    -0.442 OA
ATOM     24  C   UNL     1     148.438 165.510 193.871  0.00  0.00    +0.249 A 
ATOM     25  N   UNL     1     149.056 166.207 192.936  0.00  0.00    -0.210 NA
ATOM     26  C   UNL     1     150.391 165.982 193.149  0.00  0.00    +0.109 A 
ATOM     27  C   UNL     1     150.536 165.113 194.204  0.00  0.00    +0.118 A 
ATOM     28  O   UNL     1     149.296 164.803 194.677  0.00  0.00    -0.442 OA
ATOM     29  C   UNL     1     151.434 166.650 192.301  0.00  0.00    +0.108 C 
ATOM     30  C   UNL     1     151.923 167.972 192.986  0.00  0.00    +0.014 C 
ATOM     31  C   UNL     1     151.337 169.251 192.311  0.00  0.00    +0.061 C 
ATOM     32  C   UNL     1     149.800 169.327 192.333  0.00  0.00    -0.024 C 
ATOM     33  H   UNL     1     149.288 171.286 192.986  0.00  0.00    +0.030 HD
ATOM     34  H   UNL     1     147.196 171.639 192.013  0.00  0.00    +0.030 HD
ATOM     35  H   UNL     1     147.226 169.976 192.545  0.00  0.00    +0.030 HD
ATOM     36  H   UNL     1     146.120 169.722 190.583  0.00  0.00    +0.074 HD
ATOM     37  H   UNL     1     146.996 170.850 188.340  0.00  0.00    +0.041 HD
ATOM     38  H   UNL     1     147.825 171.966 189.358  0.00  0.00    +0.041 HD
ATOM     39  H   UNL     1     143.927 173.590 188.653  0.00  0.00    +0.074 HD
ATOM     40  H   UNL     1     141.670 173.001 188.837  0.00  0.00    +0.036 HD
ATOM     41  H   UNL     1     140.749 170.727 189.120  0.00  0.00    +0.060 HD
ATOM     42  H   UNL     1     141.901 168.889 187.693  0.00  0.00    +0.033 HD
ATOM     43  H   UNL     1     143.351 169.803 187.764  0.00  0.00    +0.033 HD
ATOM     44  H   UNL     1     143.842 168.639 189.693  0.00  0.00    +0.057 HD
ATOM     45  H   UNL     1     140.852 168.679 190.453  0.00  0.00    +0.067 HD
ATOM     46  H   UNL     1     141.792 165.934 194.231  0.00  0.00    +0.105 HD
ATOM     47  H   UNL     1     146.377 164.174 195.779  0.00  0.00    +0.105 HD
ATOM     48  H   UNL     1     151.374 164.657 194.707  0.00  0.00    +0.105 HD
ATOM     49  H   UNL     1     150.992 166.890 191.326  0.00  0.00    +0.067 HD
ATOM     50  H   UNL     1     151.574 167.988 194.033  0.00  0.00    +0.035 HD
ATOM     51  H   UNL     1     151.731 170.132 192.837  0.00  0.00    +0.060 HD
ATOM     52  H   UNL     1     149.438 169.025 193.326  0.00  0.00    +0.029 HD
ATOM     53  H   UNL     1     149.407 168.596 191.626  0.00  0.00    +0.029 HD
ENDROOT
BRANCH   1  54
ATOM     54  C   UNL     1     149.906 171.566 190.989  0.00  0.00    -0.062 C 
ATOM     55  H   UNL     1     150.911 171.183 190.781  0.00  0.00    +0.023 HD
ATOM     56  H   UNL     1     150.003 172.611 191.310  0.00  0.00    +0.023 HD
ATOM     57  H   UNL     1     149.338 171.589 190.052  0.00  0.00    +0.023 HD
ENDBRANCH   1  54
BRANCH  30  58
ATOM     58  C   UNL     1     153.457 168.069 193.051  0.00  0.00    -0.057 C 
ATOM     59  H   UNL     1     153.808 167.981 194.082  0.00  0.00    +0.023 HD
ATOM     60  H   UNL     1     153.820 169.020 192.647  0.00  0.00    +0.023 HD
ATOM     61  H   UNL     1     153.916 167.257 192.480  0.00  0.00    +0.023 HD
ENDBRANCH  30  58
BRANCH   9  62
ATOM     62  C   UNL     1     142.541 172.074 190.528  0.00  0.00    -0.057 C 
ATOM     63  H   UNL     1     142.557 173.080 190.967  0.00  0.00    +0.023 HD
ATOM     64  H   UNL     1     141.710 171.537 190.996  0.00  0.00    +0.023 HD
ATOM     65  H   UNL     1     143.470 171.573 190.814  0.00  0.00    +0.023 HD
ENDBRANCH   9  62
BRANCH   8  66
ATOM     66  C   UNL     1     143.554 172.660 186.765  0.00  0.00    +0.011 C 
ATOM     67  H   UNL     1     143.074 173.612 186.506  0.00  0.00    +0.033 HD
ATOM     68  H   UNL     1     142.911 171.837 186.427  0.00  0.00    +0.033 HD
BRANCH  66  69
ATOM     69  C   UNL     1     144.890 172.528 186.009  0.00  0.00    +0.064 C 
ATOM     70  H   UNL     1     145.656 172.191 186.713  0.00  0.00    +0.060 HD
BRANCH  69  71
ATOM     71  C   UNL     1     144.771 171.489 184.857  0.00  0.00    -0.017 C 
ATOM     72  H   UNL     1     143.935 171.786 184.217  0.00  0.00    +0.032 HD
BRANCH  71  73
ATOM     73  C   UNL     1     146.019 171.449 183.961  0.00  0.00    -0.060 C 
ATOM     74  H   UNL     1     146.471 172.436 183.859  0.00  0.00    +0.023 HD
ATOM     75  H   UNL     1     146.775 170.759 184.344  0.00  0.00    +0.023 HD
ATOM     76  H   UNL     1     145.746 171.117 182.954  0.00  0.00    +0.023 HD
ENDBRANCH  71  73
BRANCH  71  77
ATOM     77  C   UNL     1     144.494 170.055 185.373  0.00  0.00    -0.041 C 
ATOM     78  H   UNL     1     143.521 169.714 184.999  0.00  0.00    +0.027 HD
ATOM     79  H   UNL     1     144.410 170.089 186.469  0.00  0.00    +0.027 HD
BRANCH  77  80
ATOM     80  C   UNL     1     145.546 169.005 185.014  0.00  0.00    +0.007 C 
ATOM     81  H   UNL     1     145.135 168.348 184.237  0.00  0.00    +0.034 HD
ATOM     82  H   UNL     1     146.451 169.439 184.583  0.00  0.00    +0.034 HD
BRANCH  80  83
ATOM     83  C   UNL     1     145.946 168.156 186.208  0.00  0.00    +0.139 C 
ATOM     84  O   UNL     1     145.093 167.745 186.995  0.00  0.00    -0.297 OA
BRANCH  83  85
ATOM     85  C   UNL     1     147.432 167.901 186.427  0.00  0.00    +0.041 C 
ATOM     86  H   UNL     1     147.622 168.068 187.495  0.00  0.00    +0.040 HD
BRANCH  85  87
ATOM     87  C   UNL     1     148.289 168.948 185.716  0.00  0.00    -0.053 C 
ATOM     88  H   UNL     1     147.701 169.682 185.162  0.00  0.00    +0.024 HD
ATOM     89  H   UNL     1     148.871 169.514 186.452  0.00  0.00    +0.024 HD
ATOM     90  H   UNL     1     148.997 168.483 185.025  0.00  0.00    +0.024 HD
ENDBRANCH  85  87
BRANCH  85  91
ATOM     91  C   UNL     1     147.768 166.421 186.110  0.00  0.00    +0.074 C 
ATOM     92  H   UNL     1     146.915 166.009 185.550  0.00  0.00    +0.061 HD
BRANCH  91  93
ATOM     93  C   UNL     1     149.019 166.173 185.209  0.00  0.00    +0.003 C 
ATOM     94  H   UNL     1     149.235 167.103 184.665  0.00  0.00    +0.037 HD
BRANCH  93  95
ATOM     95  C   UNL     1     148.711 165.114 184.142  0.00  0.00    -0.057 C 
ATOM     96  H   UNL     1     148.319 165.579 183.230  0.00  0.00    +0.024 HD
ATOM     97  H   UNL     1     149.603 164.537 183.869  0.00  0.00    +0.024 HD
ATOM     98  H   UNL     1     147.953 164.411 184.506  0.00  0.00    +0.024 HD
ENDBRANCH  93  95
BRANCH  93  99
ATOM     99  C   UNL     1     150.258 165.735 185.967  0.00  0.00    -0.065 C 
ATOM    100  C   UNL     1     151.032 166.599 186.639  0.00  0.00    -0.005 C 
ATOM    101  H   UNL     1     150.471 164.672 185.924  0.00  0.00    +0.059 HD
ATOM    102  H   UNL     1     150.756 167.655 186.645  0.00  0.00    +0.078 HD
BRANCH 100 103
ATOM    103  N   UNL     1     152.176 166.315 187.369  0.00  0.00    -0.284 N 
ATOM    104  C   UNL     1     152.890 167.229 188.132  0.00  0.00    +0.206 C 
ATOM    105  O   UNL     1     153.897 166.997 188.793  0.00  0.00    -0.279 OA
ATOM    106  H   UNL     1     152.474 168.245 188.107  0.00  0.00    +0.126 HD
BRANCH 103 107
ATOM    107  C   UNL     1     152.674 164.943 187.299  0.00  0.00    +0.007 C 
ATOM    108  H   UNL     1     151.943 164.264 186.846  0.00  0.00    +0.043 HD
ATOM    109  H   UNL     1     153.586 164.928 186.692  0.00  0.00    +0.043 HD
ATOM    110  H   UNL     1     152.898 164.587 188.310  0.00  0.00    +0.043 HD
ENDBRANCH 103 107
ENDBRANCH 100 103
ENDBRANCH  93  99
ENDBRANCH  91  93
BRANCH  91 111
ATOM    111  O   UNL     1     147.917 165.655 187.319  0.00  0.00    -0.379 OA
BRANCH 111 112
ATOM    112  C   UNL     1     146.902 164.680 187.513  0.00  0.00    +0.037 C 
ATOM    113  H   UNL     1     147.352 163.691 187.385  0.00  0.00    +0.052 HD
ATOM    114  H   UNL     1     146.107 164.795 186.771  0.00  0.00    +0.052 HD
ATOM    115  H   UNL     1     146.488 164.735 188.523  0.00  0.00    +0.052 HD
ENDBRANCH 111 112
ENDBRANCH  91 111
ENDBRANCH  85  91
ENDBRANCH  83  85
ENDBRANCH  80  83
ENDBRANCH  77  80
ENDBRANCH  71  77
ENDBRANCH  69  71
BRANCH  69 116
ATOM    116  O   UNL     1     145.237 173.797 185.446  0.00  0.00    -0.379 OA
BRANCH 116 117
ATOM    117  C   UNL     1     146.167 174.535 186.226  0.00  0.00    +0.037 C 
ATOM    118  H   UNL     1     146.547 175.392 185.665  0.00  0.00    +0.052 HD
ATOM    119  H   UNL     1     145.648 174.905 187.114  0.00  0.00    +0.052 HD
ATOM    120  H   UNL     1     146.994 173.898 186.547  0.00  0.00    +0.052 HD
ENDBRANCH 116 117
ENDBRANCH  69 116
ENDBRANCH  66  69
ENDBRANCH   8  66
BRANCH  31 121
ATOM    121  O   UNL     1     151.781 169.302 190.954  0.00  0.00    -0.391 OA
ATOM    122  H   UNL     1     151.707 168.401 190.593  0.00  0.00    +0.210 HD
ENDBRANCH  31 121
BRANCH  29 123
ATOM    123  O   UNL     1     152.541 165.751 192.081  0.00  0.00    -0.373 OA
BRANCH 123 124
ATOM    124  C   UNL     1     152.329 164.911 190.950  0.00  0.00    +0.037 C 
ATOM    125  H   UNL     1     151.357 164.427 191.058  0.00  0.00    +0.052 HD
ATOM    126  H   UNL     1     153.100 164.135 190.909  0.00  0.00    +0.052 HD
ATOM    127  H   UNL     1     152.329 165.487 190.020  0.00  0.00    +0.052 HD
ENDBRANCH 123 124
ENDBRANCH  29 123
BRANCH  10 128
ATOM    128  O   UNL     1     141.062 171.283 187.171  0.00  0.00    -0.379 OA
BRANCH 128 129
ATOM    129  C   UNL     1     140.764 170.189 186.315  0.00  0.00    +0.037 C 
ATOM    130  H   UNL     1     140.665 170.506 185.274  0.00  0.00    +0.052 HD
ATOM    131  H   UNL     1     139.802 169.765 186.629  0.00  0.00    +0.052 HD
ATOM    132  H   UNL     1     141.531 169.412 186.408  0.00  0.00    +0.052 HD
ENDBRANCH 128 129
ENDBRANCH  10 128
BRANCH   3 133
ATOM    133  O   UNL     1     148.011 169.177 189.906  0.00  0.00    -0.447 OA
BRANCH 133 134
ATOM    134  C   UNL     1     147.618 167.892 189.935  0.00  0.00    +0.398 C 
ATOM    135  O   UNL     1     146.472 167.481 190.010  0.00  0.00    -0.227 OA
ATOM    136  N   UNL     1     148.704 167.096 189.837  0.00  0.00    -0.295 N 
ATOM    137  H   UNL     1     149.616 167.524 189.784  0.00  0.00    +0.148 HD
ATOM    138  H   UNL     1     148.594 166.096 189.833  0.00  0.00    +0.148 HD
ENDBRANCH 133 134
ENDBRANCH   3 133
TORSDOF 29
ENDMDL
MODEL 2
REMARK VINA RESULT:      -5.2      4.197      9.891
REMARK  Name = Kabiramide C_conf1
REMARK  29 active torsions:
REMARK  status: ('A' for Active; 'I' for Inactive)
REMARK    1  A    between atoms: C_1  and  C_2
REMARK    2  A    between atoms: C_4  and  O_64
REMARK    3  A    between atoms: C_9  and  C_41
REMARK    4  A    between atoms: C_10  and  C_40
REMARK    5  A    between atoms: C_11  and  O_38
REMARK    6  A    between atoms: C_30  and  O_36
REMARK    7  A    between atoms: C_31  and  C_35
REMARK    8  A    between atoms: C_32  and  O_34
REMARK    9  A    between atoms: O_36  and  C_37
REMARK   10  A    between atoms: O_38  and  C_39
REMARK   11  A    between atoms: C_41  and  C_42
REMARK   12  A    between atoms: C_42  and  C_43
REMARK   13  A    between atoms: C_42  and  O_62
REMARK   14  A    between atoms: C_43  and  C_44
REMARK   15  A    between atoms: C_43  and  C_45
REMARK   16  A    between atoms: C_45  and  C_46
REMARK   17  A    between atoms: C_46  and  C_47
REMARK   18  A    between atoms: C_47  and  C_49
REMARK   19  A    between atoms: C_49  and  C_50
REMARK   20  A    between atoms: C_49  and  C_51
REMARK   21  A    between atoms: C_51  and  C_52
REMARK   22  A    between atoms: C_51  and  O_60
REMARK   23  A    between atoms: C_52  and  C_53
REMARK   24  A    between atoms: C_52  and  C_54
REMARK   25  A    between atoms: C_55  and  N_56
REMARK   26  A    between atoms: N_56  and  C_57
REMARK   27  A    between atoms: O_60  and  C_61
REMARK   28  A    between atoms: O_62  and  C_63
REMARK   29  A    between atoms: O_64  and  C_65
REMARK                            x       y       z     vdW  Elec       q    Type
REMARK                         _______ _______ _______ _____ _____    ______ ____
ROOT
ATOM      1  C   UNL     1     146.151 163.931 187.794  0.00  0.00    -0.038 C 
ATOM      2  C   UNL     1     147.522 164.049 188.529  0.00  0.00    -0.012 C 
ATOM      3  C   UNL     1     148.350 165.358 188.409  0.00  0.00    +0.115 C 
ATOM      4  C   UNL     1     149.281 165.415 187.197  0.00  0.00    +0.082 C 
ATOM      5  C   UNL     1     150.580 164.680 187.399  0.00  0.00    +0.311 C 
ATOM      6  O   UNL     1     150.709 163.476 187.220  0.00  0.00    -0.251 OA
ATOM      7  O   UNL     1     151.581 165.551 187.711  0.00  0.00    -0.461 OA
ATOM      8  C   UNL     1     152.946 165.095 187.538  0.00  0.00    +0.110 C 
ATOM      9  C   UNL     1     153.624 164.743 188.898  0.00  0.00    +0.020 C 
ATOM     10  C   UNL     1     154.030 165.918 189.836  0.00  0.00    +0.068 C 
ATOM     11  C   UNL     1     152.922 166.932 190.183  0.00  0.00    -0.008 C 
ATOM     12  C   UNL     1     151.857 166.478 191.134  0.00  0.00    -0.077 C 
ATOM     13  C   UNL     1     152.065 165.967 192.360  0.00  0.00    -0.003 C 
ATOM     14  C   UNL     1     150.961 165.661 193.207  0.00  0.00    +0.220 A 
ATOM     15  N   UNL     1     149.683 165.737 192.874  0.00  0.00    -0.205 NA
ATOM     16  C   UNL     1     148.985 165.448 194.015  0.00  0.00    +0.164 A 
ATOM     17  C   UNL     1     149.855 165.155 195.026  0.00  0.00    +0.125 A 
ATOM     18  O   UNL     1     151.123 165.267 194.531  0.00  0.00    -0.443 OA
ATOM     19  C   UNL     1     147.434 165.473 194.095  0.00  0.00    +0.250 A 
ATOM     20  N   UNL     1     146.689 165.753 193.043  0.00  0.00    -0.203 NA
ATOM     21  C   UNL     1     145.403 165.687 193.505  0.00  0.00    +0.164 A 
ATOM     22  C   UNL     1     145.400 165.376 194.839  0.00  0.00    +0.125 A 
ATOM     23  O   UNL     1     146.701 165.232 195.237  0.00  0.00    -0.442 OA
ATOM     24  C   UNL     1     144.157 165.935 192.606  0.00  0.00    +0.249 A 
ATOM     25  N   UNL     1     144.264 166.224 191.322  0.00  0.00    -0.210 NA
ATOM     26  C   UNL     1     142.974 166.315 190.871  0.00  0.00    +0.109 A 
ATOM     27  C   UNL     1     142.114 166.107 191.924  0.00  0.00    +0.118 A 
ATOM     28  O   UNL     1     142.856 165.861 193.040  0.00  0.00    -0.442 OA
ATOM     29  C   UNL     1     142.676 166.591 189.425  0.00  0.00    +0.108 C 
ATOM     30  C   UNL     1     142.465 165.246 188.650  0.00  0.00    +0.014 C 
ATOM     31  C   UNL     1     143.691 164.865 187.761  0.00  0.00    +0.061 C 
ATOM     32  C   UNL     1     145.003 164.682 188.543  0.00  0.00    -0.024 C 
ATOM     33  H   UNL     1     145.876 162.865 187.864  0.00  0.00    +0.030 HD
ATOM     34  H   UNL     1     148.157 163.201 188.236  0.00  0.00    +0.030 HD
ATOM     35  H   UNL     1     147.318 163.898 189.600  0.00  0.00    +0.030 HD
ATOM     36  H   UNL     1     148.947 165.451 189.327  0.00  0.00    +0.074 HD
ATOM     37  H   UNL     1     149.517 166.457 186.933  0.00  0.00    +0.041 HD
ATOM     38  H   UNL     1     148.812 165.024 186.287  0.00  0.00    +0.041 HD
ATOM     39  H   UNL     1     152.962 164.186 186.923  0.00  0.00    +0.074 HD
ATOM     40  H   UNL     1     154.575 164.261 188.616  0.00  0.00    +0.036 HD
ATOM     41  H   UNL     1     154.419 165.475 190.762  0.00  0.00    +0.060 HD
ATOM     42  H   UNL     1     153.361 167.841 190.612  0.00  0.00    +0.033 HD
ATOM     43  H   UNL     1     152.441 167.298 189.270  0.00  0.00    +0.033 HD
ATOM     44  H   UNL     1     150.832 166.655 190.793  0.00  0.00    +0.057 HD
ATOM     45  H   UNL     1     153.059 165.830 192.764  0.00  0.00    +0.067 HD
ATOM     46  H   UNL     1     149.761 164.875 196.065  0.00  0.00    +0.105 HD
ATOM     47  H   UNL     1     144.644 165.224 195.595  0.00  0.00    +0.105 HD
ATOM     48  H   UNL     1     141.043 166.094 192.042  0.00  0.00    +0.105 HD
ATOM     49  H   UNL     1     143.527 167.130 188.990  0.00  0.00    +0.067 HD
ATOM     50  H   UNL     1     142.344 164.424 189.376  0.00  0.00    +0.035 HD
ATOM     51  H   UNL     1     143.465 163.923 187.244  0.00  0.00    +0.060 HD
ATOM     52  H   UNL     1     144.800 164.108 189.459  0.00  0.00    +0.029 HD
ATOM     53  H   UNL     1     145.355 165.662 188.865  0.00  0.00    +0.029 HD
ENDROOT
BRANCH   1  54
ATOM     54  C   UNL     1     146.260 164.224 186.299  0.00  0.00    -0.062 C 
ATOM     55  H   UNL     1     145.481 164.914 185.954  0.00  0.00    +0.023 HD
ATOM     56  H   UNL     1     146.183 163.304 185.706  0.00  0.00    +0.023 HD
ATOM     57  H   UNL     1     147.240 164.655 186.060  0.00  0.00    +0.023 HD
ENDBRANCH   1  54
BRANCH  30  58
ATOM     58  C   UNL     1     141.183 165.251 187.800  0.00  0.00    -0.057 C 
ATOM     59  H   UNL     1     141.412 165.060 186.749  0.00  0.00    +0.023 HD
ATOM     60  H   UNL     1     140.657 166.209 187.866  0.00  0.00    +0.023 HD
ATOM     61  H   UNL     1     140.501 164.463 188.132  0.00  0.00    +0.023 HD
ENDBRANCH  30  58
BRANCH   9  62
ATOM     62  C   UNL     1     152.828 163.671 189.654  0.00  0.00    -0.057 C 
ATOM     63  H   UNL     1     152.105 163.188 188.985  0.00  0.00    +0.023 HD
ATOM     64  H   UNL     1     153.489 162.883 190.029  0.00  0.00    +0.023 HD
ATOM     65  H   UNL     1     152.273 164.078 190.503  0.00  0.00    +0.023 HD
ENDBRANCH   9  62
BRANCH   8  66
ATOM     66  C   UNL     1     153.700 166.184 186.746  0.00  0.00    +0.011 C 
ATOM     67  H   UNL     1     154.631 166.418 187.278  0.00  0.00    +0.033 HD
ATOM     68  H   UNL     1     153.075 167.085 186.714  0.00  0.00    +0.033 HD
BRANCH  66  69
ATOM     69  C   UNL     1     154.016 165.803 185.286  0.00  0.00    +0.064 C 
ATOM     70  H   UNL     1     153.663 166.606 184.633  0.00  0.00    +0.060 HD
BRANCH  69  71
ATOM     71  C   UNL     1     155.547 165.623 185.083  0.00  0.00    -0.017 C 
ATOM     72  H   UNL     1     155.794 165.933 184.064  0.00  0.00    +0.032 HD
BRANCH  71  73
ATOM     73  C   UNL     1     156.381 166.505 186.026  0.00  0.00    -0.060 C 
ATOM     74  H   UNL     1     157.429 166.536 185.724  0.00  0.00    +0.023 HD
ATOM     75  H   UNL     1     156.001 167.529 186.069  0.00  0.00    +0.023 HD
ATOM     76  H   UNL     1     156.353 166.097 187.042  0.00  0.00    +0.023 HD
ENDBRANCH  71  73
BRANCH  71  77
ATOM     77  C   UNL     1     156.004 164.152 185.261  0.00  0.00    -0.041 C 
ATOM     78  H   UNL     1     156.814 163.934 184.553  0.00  0.00    +0.027 HD
ATOM     79  H   UNL     1     155.168 163.492 184.988  0.00  0.00    +0.027 HD
BRANCH  77  80
ATOM     80  C   UNL     1     156.469 163.766 186.665  0.00  0.00    +0.007 C 
ATOM     81  H   UNL     1     157.543 163.545 186.630  0.00  0.00    +0.034 HD
ATOM     82  H   UNL     1     156.360 164.578 187.388  0.00  0.00    +0.034 HD
BRANCH  80  83
ATOM     83  C   UNL     1     155.738 162.547 187.201  0.00  0.00    +0.139 C 
ATOM     84  O   UNL     1     154.877 161.987 186.522  0.00  0.00    -0.297 OA
BRANCH  83  85
ATOM     85  C   UNL     1     156.058 162.100 188.621  0.00  0.00    +0.041 C 
ATOM     86  H   UNL     1     155.312 162.574 189.272  0.00  0.00    +0.040 HD
BRANCH  85  87
ATOM     87  C   UNL     1     157.396 162.666 189.097  0.00  0.00    -0.053 C 
ATOM     88  H   UNL     1     158.191 161.919 189.131  0.00  0.00    +0.024 HD
ATOM     89  H   UNL     1     157.737 163.445 188.407  0.00  0.00    +0.024 HD
ATOM     90  H   UNL     1     157.309 163.119 190.088  0.00  0.00    +0.024 HD
ENDBRANCH  85  87
BRANCH  85  91
ATOM     91  C   UNL     1     155.889 160.564 188.745  0.00  0.00    +0.074 C 
ATOM     92  H   UNL     1     155.555 160.196 187.762  0.00  0.00    +0.061 HD
BRANCH  91  93
ATOM     93  C   UNL     1     157.180 159.750 189.079  0.00  0.00    +0.003 C 
ATOM     94  H   UNL     1     158.033 160.442 189.050  0.00  0.00    +0.037 HD
BRANCH  93  95
ATOM     95  C   UNL     1     157.446 158.696 187.996  0.00  0.00    -0.057 C 
ATOM     96  H   UNL     1     158.217 157.987 188.321  0.00  0.00    +0.024 HD
ATOM     97  H   UNL     1     156.543 158.124 187.752  0.00  0.00    +0.024 HD
ATOM     98  H   UNL     1     157.803 159.173 187.075  0.00  0.00    +0.024 HD
ENDBRANCH  93  95
BRANCH  93  99
ATOM     99  C   UNL     1     157.145 159.050 190.424  0.00  0.00    -0.065 C 
ATOM    100  C   UNL     1     157.729 157.860 190.630  0.00  0.00    -0.005 C 
ATOM    101  H   UNL     1     156.613 159.582 191.206  0.00  0.00    +0.059 HD
ATOM    102  H   UNL     1     158.252 157.384 189.799  0.00  0.00    +0.078 HD
BRANCH 100 103
ATOM    103  N   UNL     1     157.768 157.133 191.809  0.00  0.00    -0.284 N 
ATOM    104  C   UNL     1     158.376 157.544 192.987  0.00  0.00    +0.206 C 
ATOM    105  O   UNL     1     158.413 156.923 194.044  0.00  0.00    -0.279 OA
ATOM    106  H   UNL     1     158.857 158.529 192.914  0.00  0.00    +0.126 HD
BRANCH 103 107
ATOM    107  C   UNL     1     157.137 155.815 191.787  0.00  0.00    +0.007 C 
ATOM    108  H   UNL     1     156.558 155.652 190.871  0.00  0.00    +0.043 HD
ATOM    109  H   UNL     1     157.916 155.048 191.848  0.00  0.00    +0.043 HD
ATOM    110  H   UNL     1     156.462 155.723 192.645  0.00  0.00    +0.043 HD
ENDBRANCH 103 107
ENDBRANCH 100 103
ENDBRANCH  93  99
ENDBRANCH  91  93
BRANCH  91 111
ATOM    111  O   UNL     1     154.876 160.232 189.711  0.00  0.00    -0.379 OA
BRANCH 111 112
ATOM    112  C   UNL     1     153.631 159.863 189.137  0.00  0.00    +0.037 C 
ATOM    113  H   UNL     1     152.929 159.655 189.951  0.00  0.00    +0.052 HD
ATOM    114  H   UNL     1     153.735 158.957 188.533  0.00  0.00    +0.052 HD
ATOM    115  H   UNL     1     153.217 160.675 188.532  0.00  0.00    +0.052 HD
ENDBRANCH 111 112
ENDBRANCH  91 111
ENDBRANCH  85  91
ENDBRANCH  83  85
ENDBRANCH  80  83
ENDBRANCH  77  80
ENDBRANCH  71  77
ENDBRANCH  69  71
BRANCH  69 116
ATOM    116  O   UNL     1     153.365 164.567 184.974  0.00  0.00    -0.379 OA
BRANCH 116 117
ATOM    117  C   UNL     1     152.449 164.659 183.892  0.00  0.00    +0.037 C 
ATOM    118  H   UNL     1     151.594 165.283 184.162  0.00  0.00    +0.052 HD
ATOM    119  H   UNL     1     152.965 165.125 183.048  0.00  0.00    +0.052 HD
ATOM    120  H   UNL     1     152.110 163.667 183.587  0.00  0.00    +0.052 HD
ENDBRANCH 116 117
ENDBRANCH  69 116
ENDBRANCH  66  69
ENDBRANCH   8  66
BRANCH  31 121
ATOM    121  O   UNL     1     143.881 165.884 186.776  0.00  0.00    -0.391 OA
ATOM    122  H   UNL     1     144.167 166.688 187.245  0.00  0.00    +0.210 HD
ENDBRANCH  31 121
BRANCH  29 123
ATOM    123  O   UNL     1     141.509 167.432 189.313  0.00  0.00    -0.373 OA
BRANCH 123 124
ATOM    124  C   UNL     1     141.848 168.816 189.301  0.00  0.00    +0.037 C 
ATOM    125  H   UNL     1     142.063 169.109 188.272  0.00  0.00    +0.052 HD
ATOM    126  H   UNL     1     142.746 168.988 189.904  0.00  0.00    +0.052 HD
ATOM    127  H   UNL     1     141.025 169.432 189.673  0.00  0.00    +0.052 HD
ENDBRANCH 123 124
ENDBRANCH  29 123
BRANCH  10 128
ATOM    128  O   UNL     1     155.139 166.594 189.202  0.00  0.00    -0.379 OA
BRANCH 128 129
ATOM    129  C   UNL     1     156.418 166.215 189.690  0.00  0.00    +0.037 C 
ATOM    130  H   UNL     1     156.519 165.129 189.756  0.00  0.00    +0.052 HD
ATOM    131  H   UNL     1     156.529 166.623 190.702  0.00  0.00    +0.052 HD
ATOM    132  H   UNL     1     157.207 166.636 189.058  0.00  0.00    +0.052 HD
ENDBRANCH 128 129
ENDBRANCH  10 128
BRANCH   3 133
ATOM    133  O   UNL     1     147.431 166.462 188.322  0.00  0.00    -0.447 OA
BRANCH 133 134
ATOM    134  C   UNL     1     147.537 167.449 189.228  0.00  0.00    +0.398 C 
ATOM    135  O   UNL     1     147.656 168.641 188.998  0.00  0.00    -0.227 OA
ATOM    136  N   UNL     1     147.461 166.919 190.467  0.00  0.00    -0.295 N 
ATOM    137  H   UNL     1     147.368 165.919 190.562  0.00  0.00    +0.148 HD
ATOM    138  H   UNL     1     147.513 167.519 191.273  0.00  0.00    +0.148 HD
ENDBRANCH 133 134
ENDBRANCH   3 133
TORSDOF 29
ENDMDL
MODEL 3
REMARK VINA RESULT:      -5.1      2.514      6.740
REMARK  Name = Kabiramide C_conf1
REMARK  29 active torsions:
REMARK  status: ('A' for Active; 'I' for Inactive)
REMARK    1  A    between atoms: C_1  and  C_2
REMARK    2  A    between atoms: C_4  and  O_64
REMARK    3  A    between atoms: C_9  and  C_41
REMARK    4  A    between atoms: C_10  and  C_40
REMARK    5  A    between atoms: C_11  and  O_38
REMARK    6  A    between atoms: C_30  and  O_36
REMARK    7  A    between atoms: C_31  and  C_35
REMARK    8  A    between atoms: C_32  and  O_34
REMARK    9  A    between atoms: O_36  and  C_37
REMARK   10  A    between atoms: O_38  and  C_39
REMARK   11  A    between atoms: C_41  and  C_42
REMARK   12  A    between atoms: C_42  and  C_43
REMARK   13  A    between atoms: C_42  and  O_62
REMARK   14  A    between atoms: C_43  and  C_44
REMARK   15  A    between atoms: C_43  and  C_45
REMARK   16  A    between atoms: C_45  and  C_46
REMARK   17  A    between atoms: C_46  and  C_47
REMARK   18  A    between atoms: C_47  and  C_49
REMARK   19  A    between atoms: C_49  and  C_50
REMARK   20  A    between atoms: C_49  and  C_51
REMARK   21  A    between atoms: C_51  and  C_52
REMARK   22  A    between atoms: C_51  and  O_60
REMARK   23  A    between atoms: C_52  and  C_53
REMARK   24  A    between atoms: C_52  and  C_54
REMARK   25  A    between atoms: C_55  and  N_56
REMARK   26  A    between atoms: N_56  and  C_57
REMARK   27  A    between atoms: O_60  and  C_61
REMARK   28  A    between atoms: O_62  and  C_63
REMARK   29  A    between atoms: O_64  and  C_65
REMARK                            x       y       z     vdW  Elec       q    Type
REMARK                         _______ _______ _______ _____ _____    ______ ____
ROOT
ATOM      1  C   UNL     1     150.880 166.784 187.252  0.00  0.00    -0.038 C 
ATOM      2  C   UNL     1     149.525 167.397 186.782  0.00  0.00    -0.012 C 
ATOM      3  C   UNL     1     148.193 166.669 187.112  0.00  0.00    +0.115 C 
ATOM      4  C   UNL     1     147.777 165.608 186.094  0.00  0.00    +0.082 C 
ATOM      5  C   UNL     1     147.097 166.175 184.876  0.00  0.00    +0.311 C 
ATOM      6  O   UNL     1     147.704 166.613 183.907  0.00  0.00    -0.251 OA
ATOM      7  O   UNL     1     145.744 166.042 184.975  0.00  0.00    -0.461 OA
ATOM      8  C   UNL     1     144.967 166.147 183.756  0.00  0.00    +0.110 C 
ATOM      9  C   UNL     1     144.235 167.520 183.642  0.00  0.00    +0.020 C 
ATOM     10  C   UNL     1     143.005 167.768 184.565  0.00  0.00    +0.068 C 
ATOM     11  C   UNL     1     143.225 167.547 186.074  0.00  0.00    -0.008 C 
ATOM     12  C   UNL     1     144.039 168.573 186.802  0.00  0.00    -0.077 C 
ATOM     13  C   UNL     1     143.803 169.897 186.817  0.00  0.00    -0.003 C 
ATOM     14  C   UNL     1     144.596 170.759 187.627  0.00  0.00    +0.220 A 
ATOM     15  N   UNL     1     145.657 170.402 188.333  0.00  0.00    -0.205 NA
ATOM     16  C   UNL     1     146.037 171.521 189.022  0.00  0.00    +0.164 A 
ATOM     17  C   UNL     1     145.222 172.566 188.691  0.00  0.00    +0.125 A 
ATOM     18  O   UNL     1     144.304 172.109 187.789  0.00  0.00    -0.443 OA
ATOM     19  C   UNL     1     147.222 171.543 190.027  0.00  0.00    +0.250 A 
ATOM     20  N   UNL     1     147.957 170.472 190.255  0.00  0.00    -0.203 NA
ATOM     21  C   UNL     1     148.873 170.876 191.187  0.00  0.00    +0.164 A 
ATOM     22  C   UNL     1     148.663 172.191 191.510  0.00  0.00    +0.125 A 
ATOM     23  O   UNL     1     147.603 172.639 190.770  0.00  0.00    -0.442 OA
ATOM     24  C   UNL     1     149.977 169.943 191.763  0.00  0.00    +0.249 A 
ATOM     25  N   UNL     1     150.103 168.686 191.381  0.00  0.00    -0.210 NA
ATOM     26  C   UNL     1     151.199 168.218 192.057  0.00  0.00    +0.109 A 
ATOM     27  C   UNL     1     151.688 169.217 192.865  0.00  0.00    +0.118 A 
ATOM     28  O   UNL     1     150.917 170.327 192.687  0.00  0.00    -0.442 OA
ATOM     29  C   UNL     1     151.698 166.817 191.850  0.00  0.00    +0.108 C 
ATOM     30  C   UNL     1     152.820 166.798 190.757  0.00  0.00    +0.014 C 
ATOM     31  C   UNL     1     152.317 166.240 189.389  0.00  0.00    +0.061 C 
ATOM     32  C   UNL     1     151.160 167.041 188.768  0.00  0.00    -0.024 C 
ATOM     33  H   UNL     1     151.658 167.362 186.725  0.00  0.00    +0.030 HD
ATOM     34  H   UNL     1     149.572 167.574 185.698  0.00  0.00    +0.030 HD
ATOM     35  H   UNL     1     149.461 168.400 187.233  0.00  0.00    +0.030 HD
ATOM     36  H   UNL     1     147.410 167.437 187.175  0.00  0.00    +0.074 HD
ATOM     37  H   UNL     1     147.098 164.872 186.551  0.00  0.00    +0.041 HD
ATOM     38  H   UNL     1     148.620 164.997 185.754  0.00  0.00    +0.041 HD
ATOM     39  H   UNL     1     145.627 166.059 182.883  0.00  0.00    +0.074 HD
ATOM     40  H   UNL     1     143.830 167.533 182.616  0.00  0.00    +0.036 HD
ATOM     41  H   UNL     1     142.676 168.802 184.394  0.00  0.00    +0.060 HD
ATOM     42  H   UNL     1     142.261 167.485 186.593  0.00  0.00    +0.033 HD
ATOM     43  H   UNL     1     143.666 166.562 186.254  0.00  0.00    +0.033 HD
ATOM     44  H   UNL     1     144.847 168.166 187.417  0.00  0.00    +0.057 HD
ATOM     45  H   UNL     1     142.979 170.339 186.273  0.00  0.00    +0.067 HD
ATOM     46  H   UNL     1     145.150 173.606 188.975  0.00  0.00    +0.105 HD
ATOM     47  H   UNL     1     149.124 172.906 192.175  0.00  0.00    +0.105 HD
ATOM     48  H   UNL     1     152.505 169.302 193.564  0.00  0.00    +0.105 HD
ATOM     49  H   UNL     1     150.858 166.193 191.518  0.00  0.00    +0.067 HD
ATOM     50  H   UNL     1     153.155 167.831 190.564  0.00  0.00    +0.035 HD
ATOM     51  H   UNL     1     153.157 166.247 188.682  0.00  0.00    +0.060 HD
ATOM     52  H   UNL     1     151.370 168.115 188.870  0.00  0.00    +0.029 HD
ATOM     53  H   UNL     1     150.255 166.848 189.346  0.00  0.00    +0.029 HD
ENDROOT
BRANCH   1  54
ATOM     54  C   UNL     1     151.063 165.340 186.787  0.00  0.00    -0.062 C 
ATOM     55  H   UNL     1     152.098 164.998 186.896  0.00  0.00    +0.023 HD
ATOM     56  H   UNL     1     150.778 165.223 185.733  0.00  0.00    +0.023 HD
ATOM     57  H   UNL     1     150.409 164.667 187.353  0.00  0.00    +0.023 HD
ENDBRANCH   1  54
BRANCH  30  58
ATOM     58  C   UNL     1     154.071 166.026 191.211  0.00  0.00    -0.057 C 
ATOM     59  H   UNL     1     154.402 165.332 190.434  0.00  0.00    +0.023 HD
ATOM     60  H   UNL     1     153.883 165.451 192.124  0.00  0.00    +0.023 HD
ATOM     61  H   UNL     1     154.896 166.716 191.404  0.00  0.00    +0.023 HD
ENDBRANCH  30  58
BRANCH   9  62
ATOM     62  C   UNL     1     145.230 168.686 183.706  0.00  0.00    -0.057 C 
ATOM     63  H   UNL     1     145.294 169.190 182.733  0.00  0.00    +0.023 HD
ATOM     64  H   UNL     1     144.906 169.439 184.432  0.00  0.00    +0.023 HD
ATOM     65  H   UNL     1     146.238 168.366 183.980  0.00  0.00    +0.023 HD
ENDBRANCH   9  62
BRANCH   8  66
ATOM     66  C   UNL     1     144.007 164.940 183.714  0.00  0.00    +0.011 C 
ATOM     67  H   UNL     1     143.993 164.544 182.691  0.00  0.00    +0.033 HD
ATOM     68  H   UNL     1     142.999 165.289 183.971  0.00  0.00    +0.033 HD
BRANCH  66  69
ATOM     69  C   UNL     1     144.360 163.813 184.704  0.00  0.00    +0.064 C 
ATOM     70  H   UNL     1     145.421 163.895 184.960  0.00  0.00    +0.060 HD
BRANCH  69  71
ATOM     71  C   UNL     1     143.515 163.937 186.004  0.00  0.00    -0.017 C 
ATOM     72  H   UNL     1     143.045 164.925 186.011  0.00  0.00    +0.032 HD
BRANCH  71  73
ATOM     73  C   UNL     1     142.377 162.907 186.075  0.00  0.00    -0.060 C 
ATOM     74  H   UNL     1     142.726 161.950 186.465  0.00  0.00    +0.023 HD
ATOM     75  H   UNL     1     141.549 163.255 186.699  0.00  0.00    +0.023 HD
ATOM     76  H   UNL     1     141.980 162.718 185.072  0.00  0.00    +0.023 HD
ENDBRANCH  71  73
BRANCH  71  77
ATOM     77  C   UNL     1     144.373 163.805 187.288  0.00  0.00    -0.041 C 
ATOM     78  H   UNL     1     145.366 163.420 187.024  0.00  0.00    +0.027 HD
ATOM     79  H   UNL     1     143.912 163.050 187.939  0.00  0.00    +0.027 HD
BRANCH  77  80
ATOM     80  C   UNL     1     144.551 165.086 188.103  0.00  0.00    +0.007 C 
ATOM     81  H   UNL     1     145.563 165.473 187.931  0.00  0.00    +0.034 HD
ATOM     82  H   UNL     1     143.874 165.885 187.793  0.00  0.00    +0.034 HD
BRANCH  80  83
ATOM     83  C   UNL     1     144.364 164.854 189.592  0.00  0.00    +0.139 C 
ATOM     84  O   UNL     1     145.252 164.316 190.255  0.00  0.00    -0.297 OA
BRANCH  83  85
ATOM     85  C   UNL     1     143.025 165.241 190.205  0.00  0.00    +0.041 C 
ATOM     86  H   UNL     1     142.679 164.368 190.774  0.00  0.00    +0.040 HD
BRANCH  85  87
ATOM     87  C   UNL     1     141.957 165.446 189.131  0.00  0.00    -0.053 C 
ATOM     88  H   UNL     1     142.345 165.906 188.220  0.00  0.00    +0.024 HD
ATOM     89  H   UNL     1     141.541 164.478 188.831  0.00  0.00    +0.024 HD
ATOM     90  H   UNL     1     141.130 166.058 189.500  0.00  0.00    +0.024 HD
ENDBRANCH  85  87
BRANCH  85  91
ATOM     91  C   UNL     1     143.217 166.412 191.202  0.00  0.00    +0.074 C 
ATOM     92  H   UNL     1     142.259 166.952 191.254  0.00  0.00    +0.061 HD
BRANCH  91  93
ATOM     93  C   UNL     1     143.556 166.020 192.675  0.00  0.00    +0.003 C 
ATOM     94  H   UNL     1     143.540 164.924 192.745  0.00  0.00    +0.037 HD
BRANCH  93  95
ATOM     95  C   UNL     1     142.467 166.526 193.630  0.00  0.00    -0.057 C 
ATOM     96  H   UNL     1     141.824 165.703 193.962  0.00  0.00    +0.024 HD
ATOM     97  H   UNL     1     142.894 167.001 194.522  0.00  0.00    +0.024 HD
ATOM     98  H   UNL     1     141.828 167.263 193.128  0.00  0.00    +0.024 HD
ENDBRANCH  93  95
BRANCH  93  99
ATOM     99  C   UNL     1     144.894 166.536 193.166  0.00  0.00    -0.065 C 
ATOM    100  C   UNL     1     145.624 165.884 194.084  0.00  0.00    -0.005 C 
ATOM    101  H   UNL     1     145.217 167.472 192.722  0.00  0.00    +0.059 HD
ATOM    102  H   UNL     1     145.240 164.945 194.485  0.00  0.00    +0.078 HD
BRANCH 100 103
ATOM    103  N   UNL     1     146.856 166.253 194.600  0.00  0.00    -0.284 N 
ATOM    104  C   UNL     1     147.386 165.816 195.806  0.00  0.00    +0.206 C 
ATOM    105  O   UNL     1     148.476 166.121 196.277  0.00  0.00    -0.279 OA
ATOM    106  H   UNL     1     146.724 165.134 196.356  0.00  0.00    +0.126 HD
BRANCH 103 107
ATOM    107  C   UNL     1     147.639 167.202 193.811  0.00  0.00    +0.007 C 
ATOM    108  H   UNL     1     148.618 167.401 194.260  0.00  0.00    +0.043 HD
ATOM    109  H   UNL     1     147.793 166.786 192.809  0.00  0.00    +0.043 HD
ATOM    110  H   UNL     1     147.092 168.148 193.737  0.00  0.00    +0.043 HD
ENDBRANCH 103 107
ENDBRANCH 100 103
ENDBRANCH  93  99
ENDBRANCH  91  93
BRANCH  91 111
ATOM    111  O   UNL     1     144.219 167.332 190.731  0.00  0.00    -0.379 OA
BRANCH 111 112
ATOM    112  C   UNL     1     143.746 168.659 190.552  0.00  0.00    +0.037 C 
ATOM    113  H   UNL     1     144.144 169.037 189.605  0.00  0.00    +0.052 HD
ATOM    114  H   UNL     1     144.098 169.309 191.358  0.00  0.00    +0.052 HD
ATOM    115  H   UNL     1     142.654 168.685 190.495  0.00  0.00    +0.052 HD
ENDBRANCH 111 112
ENDBRANCH  91 111
ENDBRANCH  85  91
ENDBRANCH  83  85
ENDBRANCH  80  83
ENDBRANCH  77  80
ENDBRANCH  71  77
ENDBRANCH  69  71
BRANCH  69 116
ATOM    116  O   UNL     1     144.078 162.549 184.094  0.00  0.00    -0.379 OA
BRANCH 116 117
ATOM    117  C   UNL     1     145.202 161.684 184.023  0.00  0.00    +0.037 C 
ATOM    118  H   UNL     1     144.914 160.709 183.624  0.00  0.00    +0.052 HD
ATOM    119  H   UNL     1     145.934 162.132 183.347  0.00  0.00    +0.052 HD
ATOM    120  H   UNL     1     145.663 161.567 185.006  0.00  0.00    +0.052 HD
ENDBRANCH 116 117
ENDBRANCH  69 116
ENDBRANCH  66  69
ENDBRANCH   8  66
BRANCH  31 121
ATOM    121  O   UNL     1     151.894 164.886 189.570  0.00  0.00    -0.391 OA
ATOM    122  H   UNL     1     152.480 164.327 189.029  0.00  0.00    +0.210 HD
ENDBRANCH  31 121
BRANCH  29 123
ATOM    123  O   UNL     1     152.190 166.280 193.095  0.00  0.00    -0.373 OA
BRANCH 123 124
ATOM    124  C   UNL     1     151.133 165.811 193.929  0.00  0.00    +0.037 C 
ATOM    125  H   UNL     1     151.563 165.169 194.700  0.00  0.00    +0.052 HD
ATOM    126  H   UNL     1     150.426 165.218 193.340  0.00  0.00    +0.052 HD
ATOM    127  H   UNL     1     150.612 166.639 194.416  0.00  0.00    +0.052 HD
ENDBRANCH 123 124
ENDBRANCH  29 123
BRANCH  10 128
ATOM    128  O   UNL     1     141.946 166.910 184.088  0.00  0.00    -0.379 OA
BRANCH 128 129
ATOM    129  C   UNL     1     141.253 167.405 182.951  0.00  0.00    +0.037 C 
ATOM    130  H   UNL     1     141.734 168.297 182.542  0.00  0.00    +0.052 HD
ATOM    131  H   UNL     1     140.241 167.685 183.266  0.00  0.00    +0.052 HD
ATOM    132  H   UNL     1     141.174 166.627 182.183  0.00  0.00    +0.052 HD
ENDBRANCH 128 129
ENDBRANCH  10 128
BRANCH   3 133
ATOM    133  O   UNL     1     148.340 166.030 188.394  0.00  0.00    -0.447 OA
BRANCH 133 134
ATOM    134  C   UNL     1     147.732 166.587 189.454  0.00  0.00    +0.398 C 
ATOM    135  O   UNL     1     147.850 166.255 190.622  0.00  0.00    -0.227 OA
ATOM    136  N   UNL     1     146.970 167.620 189.033  0.00  0.00    -0.295 N 
ATOM    137  H   UNL     1     146.928 167.820 188.046  0.00  0.00    +0.148 HD
ATOM    138  H   UNL     1     146.447 168.161 189.701  0.00  0.00    +0.148 HD
ENDBRANCH 133 134
ENDBRANCH   3 133
TORSDOF 29
ENDMDL
MODEL 4
REMARK VINA RESULT:      -5.1      1.610      3.170
REMARK  Name = Kabiramide C_conf1
REMARK  29 active torsions:
REMARK  status: ('A' for Active; 'I' for Inactive)
REMARK    1  A    between atoms: C_1  and  C_2
REMARK    2  A    between atoms: C_4  and  O_64
REMARK    3  A    between atoms: C_9  and  C_41
REMARK    4  A    between atoms: C_10  and  C_40
REMARK    5  A    between atoms: C_11  and  O_38
REMARK    6  A    between atoms: C_30  and  O_36
REMARK    7  A    between atoms: C_31  and  C_35
REMARK    8  A    between atoms: C_32  and  O_34
REMARK    9  A    between atoms: O_36  and  C_37
REMARK   10  A    between atoms: O_38  and  C_39
REMARK   11  A    between atoms: C_41  and  C_42
REMARK   12  A    between atoms: C_42  and  C_43
REMARK   13  A    between atoms: C_42  and  O_62
REMARK   14  A    between atoms: C_43  and  C_44
REMARK   15  A    between atoms: C_43  and  C_45
REMARK   16  A    between atoms: C_45  and  C_46
REMARK   17  A    between atoms: C_46  and  C_47
REMARK   18  A    between atoms: C_47  and  C_49
REMARK   19  A    between atoms: C_49  and  C_50
REMARK   20  A    between atoms: C_49  and  C_51
REMARK   21  A    between atoms: C_51  and  C_52
REMARK   22  A    between atoms: C_51  and  O_60
REMARK   23  A    between atoms: C_52  and  C_53
REMARK   24  A    between atoms: C_52  and  C_54
REMARK   25  A    between atoms: C_55  and  N_56
REMARK   26  A    between atoms: N_56  and  C_57
REMARK   27  A    between atoms: O_60  and  C_61
REMARK   28  A    between atoms: O_62  and  C_63
REMARK   29  A    between atoms: O_64  and  C_65
REMARK                            x       y       z     vdW  Elec       q    Type
REMARK                         _______ _______ _______ _____ _____    ______ ____
ROOT
ATOM      1  C   UNL     1     149.155 170.804 192.144  0.00  0.00    -0.038 C 
ATOM      2  C   UNL     1     147.610 170.750 191.933  0.00  0.00    -0.012 C 
ATOM      3  C   UNL     1     147.034 170.333 190.552  0.00  0.00    +0.115 C 
ATOM      4  C   UNL     1     146.876 171.481 189.555  0.00  0.00    +0.082 C 
ATOM      5  C   UNL     1     145.626 172.294 189.764  0.00  0.00    +0.311 C 
ATOM      6  O   UNL     1     145.547 173.215 190.567  0.00  0.00    -0.251 OA
ATOM      7  O   UNL     1     144.655 171.921 188.883  0.00  0.00    -0.461 OA
ATOM      8  C   UNL     1     143.559 172.842 188.660  0.00  0.00    +0.110 C 
ATOM      9  C   UNL     1     142.254 172.389 189.385  0.00  0.00    +0.020 C 
ATOM     10  C   UNL     1     141.480 171.171 188.800  0.00  0.00    +0.068 C 
ATOM     11  C   UNL     1     142.296 169.881 188.584  0.00  0.00    -0.008 C 
ATOM     12  C   UNL     1     142.684 169.107 189.807  0.00  0.00    -0.077 C 
ATOM     13  C   UNL     1     141.842 168.666 190.758  0.00  0.00    -0.003 C 
ATOM     14  C   UNL     1     142.325 167.857 191.826  0.00  0.00    +0.220 A 
ATOM     15  N   UNL     1     143.592 167.551 192.056  0.00  0.00    -0.205 NA
ATOM     16  C   UNL     1     143.577 166.685 193.115  0.00  0.00    +0.164 A 
ATOM     17  C   UNL     1     142.293 166.507 193.548  0.00  0.00    +0.125 A 
ATOM     18  O   UNL     1     141.477 167.258 192.751  0.00  0.00    -0.443 OA
ATOM     19  C   UNL     1     144.858 166.023 193.695  0.00  0.00    +0.250 A 
ATOM     20  N   UNL     1     146.054 166.285 193.207  0.00  0.00    -0.203 NA
ATOM     21  C   UNL     1     146.906 165.521 193.956  0.00  0.00    +0.164 A 
ATOM     22  C   UNL     1     146.197 164.801 194.882  0.00  0.00    +0.125 A 
ATOM     23  O   UNL     1     144.874 165.114 194.730  0.00  0.00    -0.442 OA
ATOM     24  C   UNL     1     148.448 165.507 193.752  0.00  0.00    +0.249 A 
ATOM     25  N   UNL     1     149.041 166.246 192.832  0.00  0.00    -0.210 NA
ATOM     26  C   UNL     1     150.381 166.007 192.995  0.00  0.00    +0.109 A 
ATOM     27  C   UNL     1     150.553 165.089 194.004  0.00  0.00    +0.118 A 
ATOM     28  O   UNL     1     149.327 164.761 194.499  0.00  0.00    -0.442 OA
ATOM     29  C   UNL     1     151.402 166.711 192.148  0.00  0.00    +0.108 C 
ATOM     30  C   UNL     1     151.916 167.998 192.879  0.00  0.00    +0.014 C 
ATOM     31  C   UNL     1     151.315 169.309 192.282  0.00  0.00    +0.061 C 
ATOM     32  C   UNL     1     149.780 169.388 192.353  0.00  0.00    -0.024 C 
ATOM     33  H   UNL     1     149.297 171.315 193.111  0.00  0.00    +0.030 HD
ATOM     34  H   UNL     1     147.178 171.720 192.218  0.00  0.00    +0.030 HD
ATOM     35  H   UNL     1     147.217 170.034 192.672  0.00  0.00    +0.030 HD
ATOM     36  H   UNL     1     146.052 169.874 190.734  0.00  0.00    +0.074 HD
ATOM     37  H   UNL     1     146.865 171.102 188.521  0.00  0.00    +0.041 HD
ATOM     38  H   UNL     1     147.729 172.168 189.563  0.00  0.00    +0.041 HD
ATOM     39  H   UNL     1     143.819 173.834 189.051  0.00  0.00    +0.074 HD
ATOM     40  H   UNL     1     141.566 173.244 189.276  0.00  0.00    +0.036 HD
ATOM     41  H   UNL     1     140.644 170.961 189.480  0.00  0.00    +0.060 HD
ATOM     42  H   UNL     1     141.745 169.189 187.936  0.00  0.00    +0.033 HD
ATOM     43  H   UNL     1     143.200 170.094 188.006  0.00  0.00    +0.033 HD
ATOM     44  H   UNL     1     143.744 168.841 189.863  0.00  0.00    +0.057 HD
ATOM     45  H   UNL     1     140.777 168.853 190.714  0.00  0.00    +0.067 HD
ATOM     46  H   UNL     1     141.817 165.934 194.330  0.00  0.00    +0.105 HD
ATOM     47  H   UNL     1     146.440 164.090 195.658  0.00  0.00    +0.105 HD
ATOM     48  H   UNL     1     151.404 164.608 194.459  0.00  0.00    +0.105 HD
ATOM     49  H   UNL     1     150.931 166.997 191.199  0.00  0.00    +0.067 HD
ATOM     50  H   UNL     1     151.598 167.966 193.935  0.00  0.00    +0.035 HD
ATOM     51  H   UNL     1     151.729 170.162 192.835  0.00  0.00    +0.060 HD
ATOM     52  H   UNL     1     149.447 169.041 193.341  0.00  0.00    +0.029 HD
ATOM     53  H   UNL     1     149.363 168.691 191.625  0.00  0.00    +0.029 HD
ENDROOT
BRANCH   1  54
ATOM     54  C   UNL     1     149.856 171.686 191.112  0.00  0.00    -0.062 C 
ATOM     55  H   UNL     1     149.171 172.032 190.330  0.00  0.00    +0.023 HD
ATOM     56  H   UNL     1     150.681 171.150 190.625  0.00  0.00    +0.023 HD
ATOM     57  H   UNL     1     150.308 172.560 191.594  0.00  0.00    +0.023 HD
ENDBRANCH   1  54
BRANCH  30  58
ATOM     58  C   UNL     1     153.452 168.087 192.902  0.00  0.00    -0.057 C 
ATOM     59  H   UNL     1     153.797 168.604 193.801  0.00  0.00    +0.023 HD
ATOM     60  H   UNL     1     153.840 168.624 192.030  0.00  0.00    +0.023 HD
ATOM     61  H   UNL     1     153.893 167.087 192.913  0.00  0.00    +0.023 HD
ENDBRANCH  30  58
BRANCH   9  62
ATOM     62  C   UNL     1     142.483 172.236 190.895  0.00  0.00    -0.057 C 
ATOM     63  H   UNL     1     142.524 173.221 191.378  0.00  0.00    +0.023 HD
ATOM     64  H   UNL     1     141.660 171.687 191.363  0.00  0.00    +0.023 HD
ATOM     65  H   UNL     1     143.414 171.714 191.129  0.00  0.00    +0.023 HD
ENDBRANCH   9  62
BRANCH   8  66
ATOM     66  C   UNL     1     143.386 172.993 187.134  0.00  0.00    +0.011 C 
ATOM     67  H   UNL     1     142.318 172.909 186.896  0.00  0.00    +0.033 HD
ATOM     68  H   UNL     1     143.923 172.173 186.641  0.00  0.00    +0.033 HD
BRANCH  66  69
ATOM     69  C   UNL     1     143.945 174.309 186.559  0.00  0.00    +0.064 C 
ATOM     70  H   UNL     1     144.589 174.772 187.313  0.00  0.00    +0.060 HD
BRANCH  69  71
ATOM     71  C   UNL     1     144.781 174.039 185.276  0.00  0.00    -0.017 C 
ATOM     72  H   UNL     1     144.245 174.467 184.424  0.00  0.00    +0.032 HD
BRANCH  71  73
ATOM     73  C   UNL     1     146.162 174.713 185.313  0.00  0.00    -0.060 C 
ATOM     74  H   UNL     1     146.858 174.237 184.621  0.00  0.00    +0.023 HD
ATOM     75  H   UNL     1     146.103 175.777 185.069  0.00  0.00    +0.023 HD
ATOM     76  H   UNL     1     146.595 174.625 186.314  0.00  0.00    +0.023 HD
ENDBRANCH  71  73
BRANCH  71  77
ATOM     77  C   UNL     1     144.984 172.527 185.004  0.00  0.00    -0.041 C 
ATOM     78  H   UNL     1     144.789 172.318 183.945  0.00  0.00    +0.027 HD
ATOM     79  H   UNL     1     144.230 171.966 185.574  0.00  0.00    +0.027 HD
BRANCH  77  80
ATOM     80  C   UNL     1     146.359 171.965 185.365  0.00  0.00    +0.007 C 
ATOM     81  H   UNL     1     147.032 172.803 185.589  0.00  0.00    +0.034 HD
ATOM     82  H   UNL     1     146.345 171.351 186.268  0.00  0.00    +0.034 HD
BRANCH  80  83
ATOM     83  C   UNL     1     146.962 171.145 184.238  0.00  0.00    +0.139 C 
ATOM     84  O   UNL     1     147.316 171.688 183.191  0.00  0.00    -0.297 OA
BRANCH  83  85
ATOM     85  C   UNL     1     147.038 169.636 184.427  0.00  0.00    +0.041 C 
ATOM     86  H   UNL     1     148.105 169.378 184.446  0.00  0.00    +0.040 HD
BRANCH  85  87
ATOM     87  C   UNL     1     146.487 168.891 183.212  0.00  0.00    -0.053 C 
ATOM     88  H   UNL     1     145.398 168.814 183.212  0.00  0.00    +0.024 HD
ATOM     89  H   UNL     1     146.756 169.425 182.294  0.00  0.00    +0.024 HD
ATOM     90  H   UNL     1     146.902 167.882 183.138  0.00  0.00    +0.024 HD
ENDBRANCH  85  87
BRANCH  85  91
ATOM     91  C   UNL     1     146.430 169.242 185.797  0.00  0.00    +0.074 C 
ATOM     92  H   UNL     1     146.021 170.160 186.245  0.00  0.00    +0.061 HD
BRANCH  91  93
ATOM     93  C   UNL     1     145.241 168.229 185.761  0.00  0.00    +0.003 C 
ATOM     94  H   UNL     1     145.383 167.572 184.892  0.00  0.00    +0.037 HD
BRANCH  93  95
ATOM     95  C   UNL     1     143.914 168.966 185.531  0.00  0.00    -0.057 C 
ATOM     96  H   UNL     1     143.153 168.285 185.132  0.00  0.00    +0.024 HD
ATOM     97  H   UNL     1     143.524 169.404 186.457  0.00  0.00    +0.024 HD
ATOM     98  H   UNL     1     144.046 169.775 184.802  0.00  0.00    +0.024 HD
ENDBRANCH  93  95
BRANCH  93  99
ATOM     99  C   UNL     1     145.102 167.384 187.013  0.00  0.00    -0.065 C 
ATOM    100  C   UNL     1     143.977 166.718 187.309  0.00  0.00    -0.005 C 
ATOM    101  H   UNL     1     145.980 167.360 187.651  0.00  0.00    +0.059 HD
ATOM    102  H   UNL     1     143.134 166.782 186.620  0.00  0.00    +0.078 HD
BRANCH 100 103
ATOM    103  N   UNL     1     143.738 165.914 188.413  0.00  0.00    -0.284 N 
ATOM    104  C   UNL     1     144.712 165.384 189.248  0.00  0.00    +0.206 C 
ATOM    105  O   UNL     1     144.523 164.681 190.234  0.00  0.00    -0.279 OA
ATOM    106  H   UNL     1     145.736 165.648 188.952  0.00  0.00    +0.126 HD
BRANCH 103 107
ATOM    107  C   UNL     1     142.342 165.585 188.693  0.00  0.00    +0.007 C 
ATOM    108  H   UNL     1     142.101 164.551 188.421  0.00  0.00    +0.043 HD
ATOM    109  H   UNL     1     142.156 165.716 189.765  0.00  0.00    +0.043 HD
ATOM    110  H   UNL     1     141.691 166.255 188.122  0.00  0.00    +0.043 HD
ENDBRANCH 103 107
ENDBRANCH 100 103
ENDBRANCH  93  99
ENDBRANCH  91  93
BRANCH  91 111
ATOM    111  O   UNL     1     147.441 168.728 186.683  0.00  0.00    -0.379 OA
BRANCH 111 112
ATOM    112  C   UNL     1     148.667 168.413 186.039  0.00  0.00    +0.037 C 
ATOM    113  H   UNL     1     148.656 167.348 185.788  0.00  0.00    +0.052 HD
ATOM    114  H   UNL     1     149.514 168.602 186.704  0.00  0.00    +0.052 HD
ATOM    115  H   UNL     1     148.782 168.979 185.110  0.00  0.00    +0.052 HD
ENDBRANCH 111 112
ENDBRANCH  91 111
ENDBRANCH  85  91
ENDBRANCH  83  85
ENDBRANCH  80  83
ENDBRANCH  77  80
ENDBRANCH  71  77
ENDBRANCH  69  71
BRANCH  69 116
ATOM    116  O   UNL     1     142.854 175.173 186.221  0.00  0.00    -0.379 OA
BRANCH 116 117
ATOM    117  C   UNL     1     141.741 174.497 185.656  0.00  0.00    +0.037 C 
ATOM    118  H   UNL     1     141.636 174.743 184.598  0.00  0.00    +0.052 HD
ATOM    119  H   UNL     1     141.915 173.421 185.746  0.00  0.00    +0.052 HD
ATOM    120  H   UNL     1     140.824 174.746 186.194  0.00  0.00    +0.052 HD
ENDBRANCH 116 117
ENDBRANCH  69 116
ENDBRANCH  66  69
ENDBRANCH   8  66
BRANCH  31 121
ATOM    121  O   UNL     1     151.719 169.421 190.915  0.00  0.00    -0.391 OA
ATOM    122  H   UNL     1     150.989 169.080 190.370  0.00  0.00    +0.210 HD
ENDBRANCH  31 121
BRANCH  29 123
ATOM    123  O   UNL     1     152.497 165.819 191.854  0.00  0.00    -0.373 OA
BRANCH 123 124
ATOM    124  C   UNL     1     152.248 165.032 190.692  0.00  0.00    +0.037 C 
ATOM    125  H   UNL     1     151.566 165.584 190.043  0.00  0.00    +0.052 HD
ATOM    126  H   UNL     1     151.770 164.088 190.974  0.00  0.00    +0.052 HD
ATOM    127  H   UNL     1     153.170 164.834 190.139  0.00  0.00    +0.052 HD
ENDBRANCH 123 124
ENDBRANCH  29 123
BRANCH  10 128
ATOM    128  O   UNL     1     140.901 171.606 187.550  0.00  0.00    -0.379 OA
BRANCH 128 129
ATOM    129  C   UNL     1     140.585 170.555 186.649  0.00  0.00    +0.037 C 
ATOM    130  H   UNL     1     139.525 170.558 186.381  0.00  0.00    +0.052 HD
ATOM    131  H   UNL     1     140.801 169.603 187.150  0.00  0.00    +0.052 HD
ATOM    132  H   UNL     1     141.208 170.623 185.750  0.00  0.00    +0.052 HD
ENDBRANCH 128 129
ENDBRANCH  10 128
BRANCH   3 133
ATOM    133  O   UNL     1     147.920 169.355 189.976  0.00  0.00    -0.447 OA
BRANCH 133 134
ATOM    134  C   UNL     1     147.541 168.066 189.997  0.00  0.00    +0.398 C 
ATOM    135  O   UNL     1     148.174 167.112 189.574  0.00  0.00    -0.227 OA
ATOM    136  N   UNL     1     146.336 167.970 190.598  0.00  0.00    -0.295 N 
ATOM    137  H   UNL     1     145.883 168.814 190.913  0.00  0.00    +0.148 HD
ATOM    138  H   UNL     1     145.902 167.069 190.710  0.00  0.00    +0.148 HD
ENDBRANCH 133 134
ENDBRANCH   3 133
TORSDOF 29
ENDMDL
MODEL 5
REMARK VINA RESULT:      -5.0      4.324      9.851
REMARK  Name = Kabiramide C_conf1
REMARK  29 active torsions:
REMARK  status: ('A' for Active; 'I' for Inactive)
REMARK    1  A    between atoms: C_1  and  C_2
REMARK    2  A    between atoms: C_4  and  O_64
REMARK    3  A    between atoms: C_9  and  C_41
REMARK    4  A    between atoms: C_10  and  C_40
REMARK    5  A    between atoms: C_11  and  O_38
REMARK    6  A    between atoms: C_30  and  O_36
REMARK    7  A    between atoms: C_31  and  C_35
REMARK    8  A    between atoms: C_32  and  O_34
REMARK    9  A    between atoms: O_36  and  C_37
REMARK   10  A    between atoms: O_38  and  C_39
REMARK   11  A    between atoms: C_41  and  C_42
REMARK   12  A    between atoms: C_42  and  C_43
REMARK   13  A    between atoms: C_42  and  O_62
REMARK   14  A    between atoms: C_43  and  C_44
REMARK   15  A    between atoms: C_43  and  C_45
REMARK   16  A    between atoms: C_45  and  C_46
REMARK   17  A    between atoms: C_46  and  C_47
REMARK   18  A    between atoms: C_47  and  C_49
REMARK   19  A    between atoms: C_49  and  C_50
REMARK   20  A    between atoms: C_49  and  C_51
REMARK   21  A    between atoms: C_51  and  C_52
REMARK   22  A    between atoms: C_51  and  O_60
REMARK   23  A    between atoms: C_52  and  C_53
REMARK   24  A    between atoms: C_52  and  C_54
REMARK   25  A    between atoms: C_55  and  N_56
REMARK   26  A    between atoms: N_56  and  C_57
REMARK   27  A    between atoms: O_60  and  C_61
REMARK   28  A    between atoms: O_62  and  C_63
REMARK   29  A    between atoms: O_64  and  C_65
REMARK                            x       y       z     vdW  Elec       q    Type
REMARK                         _______ _______ _______ _____ _____    ______ ____
ROOT
ATOM      1  C   UNL     1     146.159 164.325 187.701  0.00  0.00    -0.038 C 
ATOM      2  C   UNL     1     147.532 164.371 188.441  0.00  0.00    -0.012 C 
ATOM      3  C   UNL     1     148.385 165.668 188.401  0.00  0.00    +0.115 C 
ATOM      4  C   UNL     1     149.318 165.781 187.196  0.00  0.00    +0.082 C 
ATOM      5  C   UNL     1     150.603 165.010 187.352  0.00  0.00    +0.311 C 
ATOM      6  O   UNL     1     150.708 163.817 187.099  0.00  0.00    -0.251 OA
ATOM      7  O   UNL     1     151.621 165.840 187.716  0.00  0.00    -0.461 OA
ATOM      8  C   UNL     1     152.977 165.370 187.516  0.00  0.00    +0.110 C 
ATOM      9  C   UNL     1     153.646 164.922 188.851  0.00  0.00    +0.020 C 
ATOM     10  C   UNL     1     154.074 166.030 189.859  0.00  0.00    +0.068 C 
ATOM     11  C   UNL     1     152.985 167.042 190.268  0.00  0.00    -0.008 C 
ATOM     12  C   UNL     1     151.911 166.552 191.189  0.00  0.00    -0.077 C 
ATOM     13  C   UNL     1     152.107 165.962 192.382  0.00  0.00    -0.003 C 
ATOM     14  C   UNL     1     150.997 165.627 193.209  0.00  0.00    +0.220 A 
ATOM     15  N   UNL     1     149.720 165.748 192.881  0.00  0.00    -0.205 NA
ATOM     16  C   UNL     1     149.016 165.403 194.002  0.00  0.00    +0.164 A 
ATOM     17  C   UNL     1     149.879 165.032 194.994  0.00  0.00    +0.125 A 
ATOM     18  O   UNL     1     151.149 165.150 194.506  0.00  0.00    -0.443 OA
ATOM     19  C   UNL     1     147.465 165.454 194.084  0.00  0.00    +0.250 A 
ATOM     20  N   UNL     1     146.727 165.811 193.052  0.00  0.00    -0.203 NA
ATOM     21  C   UNL     1     145.440 165.743 193.508  0.00  0.00    +0.164 A 
ATOM     22  C   UNL     1     145.429 165.351 194.821  0.00  0.00    +0.125 A 
ATOM     23  O   UNL     1     146.726 165.157 195.209  0.00  0.00    -0.442 OA
ATOM     24  C   UNL     1     144.200 166.069 192.626  0.00  0.00    +0.249 A 
ATOM     25  N   UNL     1     144.314 166.434 191.363  0.00  0.00    -0.210 NA
ATOM     26  C   UNL     1     143.026 166.577 190.918  0.00  0.00    +0.109 A 
ATOM     27  C   UNL     1     142.162 166.322 191.956  0.00  0.00    +0.118 A 
ATOM     28  O   UNL     1     142.898 165.994 193.055  0.00  0.00    -0.442 OA
ATOM     29  C   UNL     1     142.736 166.947 189.491  0.00  0.00    +0.108 C 
ATOM     30  C   UNL     1     142.499 165.656 188.636  0.00  0.00    +0.014 C 
ATOM     31  C   UNL     1     143.718 165.307 187.725  0.00  0.00    +0.061 C 
ATOM     32  C   UNL     1     145.026 165.050 188.494  0.00  0.00    -0.024 C 
ATOM     33  H   UNL     1     145.864 163.261 187.706  0.00  0.00    +0.030 HD
ATOM     34  H   UNL     1     148.150 163.530 188.097  0.00  0.00    +0.030 HD
ATOM     35  H   UNL     1     147.324 164.158 189.501  0.00  0.00    +0.030 HD
ATOM     36  H   UNL     1     148.983 165.693 189.324  0.00  0.00    +0.074 HD
ATOM     37  H   UNL     1     149.576 166.832 186.996  0.00  0.00    +0.041 HD
ATOM     38  H   UNL     1     148.843 165.456 186.263  0.00  0.00    +0.041 HD
ATOM     39  H   UNL     1     152.975 164.499 186.846  0.00  0.00    +0.074 HD
ATOM     40  H   UNL     1     154.588 164.440 188.540  0.00  0.00    +0.036 HD
ATOM     41  H   UNL     1     154.453 165.522 190.757  0.00  0.00    +0.060 HD
ATOM     42  H   UNL     1     153.441 167.914 190.752  0.00  0.00    +0.033 HD
ATOM     43  H   UNL     1     152.513 167.471 189.379  0.00  0.00    +0.033 HD
ATOM     44  H   UNL     1     150.890 166.768 190.860  0.00  0.00    +0.057 HD
ATOM     45  H   UNL     1     153.098 165.781 192.777  0.00  0.00    +0.067 HD
ATOM     46  H   UNL     1     149.778 164.691 196.014  0.00  0.00    +0.105 HD
ATOM     47  H   UNL     1     144.669 165.168 195.566  0.00  0.00    +0.105 HD
ATOM     48  H   UNL     1     141.090 166.323 192.073  0.00  0.00    +0.105 HD
ATOM     49  H   UNL     1     143.597 167.495 189.090  0.00  0.00    +0.067 HD
ATOM     50  H   UNL     1     142.361 164.794 189.310  0.00  0.00    +0.035 HD
ATOM     51  H   UNL     1     143.475 164.402 187.152  0.00  0.00    +0.060 HD
ATOM     52  H   UNL     1     144.810 164.426 189.373  0.00  0.00    +0.029 HD
ATOM     53  H   UNL     1     145.396 166.002 188.876  0.00  0.00    +0.029 HD
ENDROOT
BRANCH   1  54
ATOM     54  C   UNL     1     146.276 164.707 186.226  0.00  0.00    -0.062 C 
ATOM     55  H   UNL     1     147.308 164.936 185.939  0.00  0.00    +0.023 HD
ATOM     56  H   UNL     1     145.658 165.583 185.992  0.00  0.00    +0.023 HD
ATOM     57  H   UNL     1     145.906 163.897 185.587  0.00  0.00    +0.023 HD
ENDBRANCH   1  54
BRANCH  30  58
ATOM     58  C   UNL     1     141.218 165.738 187.788  0.00  0.00    -0.057 C 
ATOM     59  H   UNL     1     141.455 165.972 186.748  0.00  0.00    +0.023 HD
ATOM     60  H   UNL     1     140.533 166.506 188.162  0.00  0.00    +0.023 HD
ATOM     61  H   UNL     1     140.694 164.779 187.795  0.00  0.00    +0.023 HD
ENDBRANCH  30  58
BRANCH   9  62
ATOM     62  C   UNL     1     152.828 163.821 189.541  0.00  0.00    -0.057 C 
ATOM     63  H   UNL     1     153.458 163.258 190.242  0.00  0.00    +0.023 HD
ATOM     64  H   UNL     1     152.008 164.249 190.125  0.00  0.00    +0.023 HD
ATOM     65  H   UNL     1     152.402 163.107 188.832  0.00  0.00    +0.023 HD
ENDBRANCH   9  62
BRANCH   8  66
ATOM     66  C   UNL     1     153.752 166.490 186.791  0.00  0.00    +0.011 C 
ATOM     67  H   UNL     1     154.482 166.915 187.492  0.00  0.00    +0.033 HD
ATOM     68  H   UNL     1     153.041 167.274 186.504  0.00  0.00    +0.033 HD
BRANCH  66  69
ATOM     69  C   UNL     1     154.469 166.036 185.505  0.00  0.00    +0.064 C 
ATOM     70  H   UNL     1     154.044 166.585 184.659  0.00  0.00    +0.060 HD
BRANCH  69  71
ATOM     71  C   UNL     1     155.993 166.335 185.588  0.00  0.00    -0.017 C 
ATOM     72  H   UNL     1     156.185 166.860 186.528  0.00  0.00    +0.032 HD
BRANCH  71  73
ATOM     73  C   UNL     1     156.849 165.059 185.613  0.00  0.00    -0.060 C 
ATOM     74  H   UNL     1     157.523 165.013 184.756  0.00  0.00    +0.023 HD
ATOM     75  H   UNL     1     157.443 164.984 186.527  0.00  0.00    +0.023 HD
ATOM     76  H   UNL     1     156.205 164.175 185.560  0.00  0.00    +0.023 HD
ENDBRANCH  71  73
BRANCH  71  77
ATOM     77  C   UNL     1     156.488 167.233 184.426  0.00  0.00    -0.041 C 
ATOM     78  H   UNL     1     155.653 167.836 184.050  0.00  0.00    +0.027 HD
ATOM     79  H   UNL     1     156.802 166.586 183.595  0.00  0.00    +0.027 HD
BRANCH  77  80
ATOM     80  C   UNL     1     157.651 168.168 184.760  0.00  0.00    +0.007 C 
ATOM     81  H   UNL     1     157.336 168.847 185.562  0.00  0.00    +0.034 HD
ATOM     82  H   UNL     1     158.525 167.640 185.148  0.00  0.00    +0.034 HD
BRANCH  80  83
ATOM     83  C   UNL     1     158.086 168.998 183.564  0.00  0.00    +0.139 C 
ATOM     84  O   UNL     1     158.771 168.495 182.673  0.00  0.00    -0.297 OA
BRANCH  83  85
ATOM     85  C   UNL     1     157.710 170.473 183.554  0.00  0.00    +0.041 C 
ATOM     86  H   UNL     1     158.652 171.035 183.549  0.00  0.00    +0.040 HD
BRANCH  85  87
ATOM     87  C   UNL     1     157.024 170.885 184.856  0.00  0.00    -0.053 C 
ATOM     88  H   UNL     1     156.768 170.037 185.494  0.00  0.00    +0.024 HD
ATOM     89  H   UNL     1     157.696 171.519 185.445  0.00  0.00    +0.024 HD
ATOM     90  H   UNL     1     156.114 171.459 184.666  0.00  0.00    +0.024 HD
ENDBRANCH  85  87
BRANCH  85  91
ATOM     91  C   UNL     1     156.946 170.816 182.249  0.00  0.00    +0.074 C 
ATOM     92  H   UNL     1     157.254 170.079 181.491  0.00  0.00    +0.061 HD
BRANCH  91  93
ATOM     93  C   UNL     1     155.388 170.723 182.314  0.00  0.00    +0.003 C 
ATOM     94  H   UNL     1     155.095 170.695 183.372  0.00  0.00    +0.037 HD
BRANCH  93  95
ATOM     95  C   UNL     1     154.902 169.404 181.698  0.00  0.00    -0.057 C 
ATOM     96  H   UNL     1     155.665 168.975 181.039  0.00  0.00    +0.024 HD
ATOM     97  H   UNL     1     154.662 168.658 182.466  0.00  0.00    +0.024 HD
ATOM     98  H   UNL     1     154.001 169.570 181.095  0.00  0.00    +0.024 HD
ENDBRANCH  93  95
BRANCH  93  99
ATOM     99  C   UNL     1     154.665 171.863 181.622  0.00  0.00    -0.065 C 
ATOM    100  C   UNL     1     153.942 172.770 182.295  0.00  0.00    -0.005 C 
ATOM    101  H   UNL     1     154.776 171.889 180.543  0.00  0.00    +0.059 HD
ATOM    102  H   UNL     1     153.878 172.686 183.381  0.00  0.00    +0.078 HD
BRANCH 100 103
ATOM    103  N   UNL     1     153.249 173.851 181.774  0.00  0.00    -0.284 N 
ATOM    104  C   UNL     1     151.939 174.190 182.083  0.00  0.00    +0.206 C 
ATOM    105  O   UNL     1     151.310 175.147 181.643  0.00  0.00    -0.279 OA
ATOM    106  H   UNL     1     151.462 173.502 182.793  0.00  0.00    +0.126 HD
BRANCH 103 107
ATOM    107  C   UNL     1     153.961 174.678 180.802  0.00  0.00    +0.007 C 
ATOM    108  H   UNL     1     153.840 174.305 179.779  0.00  0.00    +0.043 HD
ATOM    109  H   UNL     1     153.566 175.699 180.850  0.00  0.00    +0.043 HD
ATOM    110  H   UNL     1     155.028 174.684 181.045  0.00  0.00    +0.043 HD
ENDBRANCH 103 107
ENDBRANCH 100 103
ENDBRANCH  93  99
ENDBRANCH  91  93
BRANCH  91 111
ATOM    111  O   UNL     1     157.306 172.123 181.768  0.00  0.00    -0.379 OA
BRANCH 111 112
ATOM    112  C   UNL     1     158.701 172.388 181.806  0.00  0.00    +0.037 C 
ATOM    113  H   UNL     1     159.229 171.478 181.507  0.00  0.00    +0.052 HD
ATOM    114  H   UNL     1     159.018 172.653 182.819  0.00  0.00    +0.052 HD
ATOM    115  H   UNL     1     158.972 173.184 181.106  0.00  0.00    +0.052 HD
ENDBRANCH 111 112
ENDBRANCH  91 111
ENDBRANCH  85  91
ENDBRANCH  83  85
ENDBRANCH  80  83
ENDBRANCH  77  80
ENDBRANCH  71  77
ENDBRANCH  69  71
BRANCH  69 116
ATOM    116  O   UNL     1     154.287 164.626 185.340  0.00  0.00    -0.379 OA
BRANCH 116 117
ATOM    117  C   UNL     1     153.586 164.272 184.158  0.00  0.00    +0.037 C 
ATOM    118  H   UNL     1     152.818 163.525 184.373  0.00  0.00    +0.052 HD
ATOM    119  H   UNL     1     153.095 165.169 183.771  0.00  0.00    +0.052 HD
ATOM    120  H   UNL     1     154.274 163.897 183.397  0.00  0.00    +0.052 HD
ENDBRANCH 116 117
ENDBRANCH  69 116
ENDBRANCH  66  69
ENDBRANCH   8  66
BRANCH  31 121
ATOM    121  O   UNL     1     143.929 166.380 186.804  0.00  0.00    -0.391 OA
ATOM    122  H   UNL     1     143.091 166.870 186.736  0.00  0.00    +0.210 HD
ENDBRANCH  31 121
BRANCH  29 123
ATOM    123  O   UNL     1     141.585 167.816 189.432  0.00  0.00    -0.373 OA
BRANCH 123 124
ATOM    124  C   UNL     1     141.951 169.191 189.501  0.00  0.00    +0.037 C 
ATOM    125  H   UNL     1     143.022 169.273 189.303  0.00  0.00    +0.052 HD
ATOM    126  H   UNL     1     141.754 169.582 190.505  0.00  0.00    +0.052 HD
ATOM    127  H   UNL     1     141.414 169.785 188.757  0.00  0.00    +0.052 HD
ENDBRANCH 123 124
ENDBRANCH  29 123
BRANCH  10 128
ATOM    128  O   UNL     1     155.196 166.721 189.268  0.00  0.00    -0.379 OA
BRANCH 128 129
ATOM    129  C   UNL     1     156.422 166.006 189.318  0.00  0.00    +0.037 C 
ATOM    130  H   UNL     1     157.243 166.635 189.672  0.00  0.00    +0.052 HD
ATOM    131  H   UNL     1     156.666 165.679 188.300  0.00  0.00    +0.052 HD
ATOM    132  H   UNL     1     156.320 165.118 189.952  0.00  0.00    +0.052 HD
ENDBRANCH 128 129
ENDBRANCH  10 128
BRANCH   3 133
ATOM    133  O   UNL     1     147.488 166.793 188.382  0.00  0.00    -0.447 OA
BRANCH 133 134
ATOM    134  C   UNL     1     147.501 167.634 189.430  0.00  0.00    +0.398 C 
ATOM    135  O   UNL     1     146.981 168.736 189.490  0.00  0.00    -0.227 OA
ATOM    136  N   UNL     1     148.169 167.054 190.451  0.00  0.00    -0.295 N 
ATOM    137  H   UNL     1     148.571 166.141 190.310  0.00  0.00    +0.148 HD
ATOM    138  H   UNL     1     148.269 167.542 191.325  0.00  0.00    +0.148 HD
ENDBRANCH 133 134
ENDBRANCH   3 133
TORSDOF 29
ENDMDL
MODEL 6
REMARK VINA RESULT:      -5.0      3.635      9.663
REMARK  Name = Kabiramide C_conf1
REMARK  29 active torsions:
REMARK  status: ('A' for Active; 'I' for Inactive)
REMARK    1  A    between atoms: C_1  and  C_2
REMARK    2  A    between atoms: C_4  and  O_64
REMARK    3  A    between atoms: C_9  and  C_41
REMARK    4  A    between atoms: C_10  and  C_40
REMARK    5  A    between atoms: C_11  and  O_38
REMARK    6  A    between atoms: C_30  and  O_36
REMARK    7  A    between atoms: C_31  and  C_35
REMARK    8  A    between atoms: C_32  and  O_34
REMARK    9  A    between atoms: O_36  and  C_37
REMARK   10  A    between atoms: O_38  and  C_39
REMARK   11  A    between atoms: C_41  and  C_42
REMARK   12  A    between atoms: C_42  and  C_43
REMARK   13  A    between atoms: C_42  and  O_62
REMARK   14  A    between atoms: C_43  and  C_44
REMARK   15  A    between atoms: C_43  and  C_45
REMARK   16  A    between atoms: C_45  and  C_46
REMARK   17  A    between atoms: C_46  and  C_47
REMARK   18  A    between atoms: C_47  and  C_49
REMARK   19  A    between atoms: C_49  and  C_50
REMARK   20  A    between atoms: C_49  and  C_51
REMARK   21  A    between atoms: C_51  and  C_52
REMARK   22  A    between atoms: C_51  and  O_60
REMARK   23  A    between atoms: C_52  and  C_53
REMARK   24  A    between atoms: C_52  and  C_54
REMARK   25  A    between atoms: C_55  and  N_56
REMARK   26  A    between atoms: N_56  and  C_57
REMARK   27  A    between atoms: O_60  and  C_61
REMARK   28  A    between atoms: O_62  and  C_63
REMARK   29  A    between atoms: O_64  and  C_65
REMARK                            x       y       z     vdW  Elec       q    Type
REMARK                         _______ _______ _______ _____ _____    ______ ____
ROOT
ATOM      1  C   UNL     1     146.092 164.223 187.726  0.00  0.00    -0.038 C 
ATOM      2  C   UNL     1     147.470 164.311 188.453  0.00  0.00    -0.012 C 
ATOM      3  C   UNL     1     148.291 165.628 188.391  0.00  0.00    +0.115 C 
ATOM      4  C   UNL     1     149.210 165.749 187.175  0.00  0.00    +0.082 C 
ATOM      5  C   UNL     1     150.514 165.012 187.328  0.00  0.00    +0.311 C 
ATOM      6  O   UNL     1     150.647 163.819 187.088  0.00  0.00    -0.251 OA
ATOM      7  O   UNL     1     151.515 165.871 187.673  0.00  0.00    -0.461 OA
ATOM      8  C   UNL     1     152.880 165.431 187.466  0.00  0.00    +0.110 C 
ATOM      9  C   UNL     1     153.572 165.015 188.800  0.00  0.00    +0.020 C 
ATOM     10  C   UNL     1     153.982 166.145 189.791  0.00  0.00    +0.068 C 
ATOM     11  C   UNL     1     152.873 167.135 190.198  0.00  0.00    -0.008 C 
ATOM     12  C   UNL     1     151.819 166.629 191.135  0.00  0.00    -0.077 C 
ATOM     13  C   UNL     1     152.041 166.058 192.333  0.00  0.00    -0.003 C 
ATOM     14  C   UNL     1     150.947 165.706 193.174  0.00  0.00    +0.220 A 
ATOM     15  N   UNL     1     149.664 165.792 192.857  0.00  0.00    -0.205 NA
ATOM     16  C   UNL     1     148.979 165.442 193.988  0.00  0.00    +0.164 A 
ATOM     17  C   UNL     1     149.860 165.104 194.975  0.00  0.00    +0.125 A 
ATOM     18  O   UNL     1     151.122 165.247 194.475  0.00  0.00    -0.443 OA
ATOM     19  C   UNL     1     147.428 165.456 194.084  0.00  0.00    +0.250 A 
ATOM     20  N   UNL     1     146.672 165.784 193.055  0.00  0.00    -0.203 NA
ATOM     21  C   UNL     1     145.391 165.690 193.524  0.00  0.00    +0.164 A 
ATOM     22  C   UNL     1     145.403 165.312 194.841  0.00  0.00    +0.125 A 
ATOM     23  O   UNL     1     146.707 165.155 195.219  0.00  0.00    -0.442 OA
ATOM     24  C   UNL     1     144.136 165.975 192.650  0.00  0.00    +0.249 A 
ATOM     25  N   UNL     1     144.229 166.329 191.382  0.00  0.00    -0.210 NA
ATOM     26  C   UNL     1     142.934 166.435 190.947  0.00  0.00    +0.109 A 
ATOM     27  C   UNL     1     142.086 166.171 191.996  0.00  0.00    +0.118 A 
ATOM     28  O   UNL     1     142.840 165.873 193.092  0.00  0.00    -0.442 OA
ATOM     29  C   UNL     1     142.622 166.781 189.520  0.00  0.00    +0.108 C 
ATOM     30  C   UNL     1     142.409 165.475 188.681  0.00  0.00    +0.014 C 
ATOM     31  C   UNL     1     143.628 165.145 187.763  0.00  0.00    +0.061 C 
ATOM     32  C   UNL     1     144.949 164.929 188.523  0.00  0.00    -0.024 C 
ATOM     33  H   UNL     1     145.823 163.153 187.746  0.00  0.00    +0.030 HD
ATOM     34  H   UNL     1     148.105 163.482 188.113  0.00  0.00    +0.030 HD
ATOM     35  H   UNL     1     147.277 164.105 189.518  0.00  0.00    +0.030 HD
ATOM     36  H   UNL     1     148.896 165.678 189.307  0.00  0.00    +0.074 HD
ATOM     37  H   UNL     1     149.439 166.805 186.961  0.00  0.00    +0.041 HD
ATOM     38  H   UNL     1     148.735 165.403 186.251  0.00  0.00    +0.041 HD
ATOM     39  H   UNL     1     152.893 164.553 186.806  0.00  0.00    +0.074 HD
ATOM     40  H   UNL     1     154.523 164.553 188.485  0.00  0.00    +0.036 HD
ATOM     41  H   UNL     1     154.381 165.657 190.691  0.00  0.00    +0.060 HD
ATOM     42  H   UNL     1     153.311 168.023 190.668  0.00  0.00    +0.033 HD
ATOM     43  H   UNL     1     152.382 167.542 189.310  0.00  0.00    +0.033 HD
ATOM     44  H   UNL     1     150.790 166.817 190.813  0.00  0.00    +0.057 HD
ATOM     45  H   UNL     1     153.039 165.906 192.720  0.00  0.00    +0.067 HD
ATOM     46  H   UNL     1     149.777 164.773 196.000  0.00  0.00    +0.105 HD
ATOM     47  H   UNL     1     144.654 165.120 195.596  0.00  0.00    +0.105 HD
ATOM     48  H   UNL     1     141.015 166.147 192.124  0.00  0.00    +0.105 HD
ATOM     49  H   UNL     1     143.466 167.345 189.104  0.00  0.00    +0.067 HD
ATOM     50  H   UNL     1     142.299 164.618 189.366  0.00  0.00    +0.035 HD
ATOM     51  H   UNL     1     143.401 164.229 187.202  0.00  0.00    +0.060 HD
ATOM     52  H   UNL     1     144.757 164.310 189.410  0.00  0.00    +0.029 HD
ATOM     53  H   UNL     1     145.299 165.895 188.890  0.00  0.00    +0.029 HD
ENDROOT
BRANCH   1  54
ATOM     54  C   UNL     1     146.186 164.591 186.246  0.00  0.00    -0.062 C 
ATOM     55  H   UNL     1     146.708 165.541 186.089  0.00  0.00    +0.023 HD
ATOM     56  H   UNL     1     145.190 164.673 185.793  0.00  0.00    +0.023 HD
ATOM     57  H   UNL     1     146.708 163.807 185.686  0.00  0.00    +0.023 HD
ENDBRANCH   1  54
BRANCH  30  58
ATOM     58  C   UNL     1     141.119 165.516 187.844  0.00  0.00    -0.057 C 
ATOM     59  H   UNL     1     140.930 166.525 187.471  0.00  0.00    +0.023 HD
ATOM     60  H   UNL     1     140.248 165.200 188.427  0.00  0.00    +0.023 HD
ATOM     61  H   UNL     1     141.206 164.859 186.975  0.00  0.00    +0.023 HD
ENDBRANCH  30  58
BRANCH   9  62
ATOM     62  C   UNL     1     152.788 163.903 189.509  0.00  0.00    -0.057 C 
ATOM     63  H   UNL     1     153.340 162.955 189.462  0.00  0.00    +0.023 HD
ATOM     64  H   UNL     1     152.648 164.137 190.569  0.00  0.00    +0.023 HD
ATOM     65  H   UNL     1     151.803 163.734 189.067  0.00  0.00    +0.023 HD
ENDBRANCH   9  62
BRANCH   8  66
ATOM     66  C   UNL     1     153.621 166.562 186.721  0.00  0.00    +0.011 C 
ATOM     67  H   UNL     1     153.986 167.284 187.462  0.00  0.00    +0.033 HD
ATOM     68  H   UNL     1     152.908 167.067 186.058  0.00  0.00    +0.033 HD
BRANCH  66  69
ATOM     69  C   UNL     1     154.792 166.081 185.842  0.00  0.00    +0.064 C 
ATOM     70  H   UNL     1     155.543 165.616 186.488  0.00  0.00    +0.060 HD
BRANCH  69  71
ATOM     71  C   UNL     1     154.305 165.036 184.799  0.00  0.00    -0.017 C 
ATOM     72  H   UNL     1     153.275 164.762 185.047  0.00  0.00    +0.032 HD
BRANCH  71  73
ATOM     73  C   UNL     1     154.281 165.591 183.366  0.00  0.00    -0.060 C 
ATOM     74  H   UNL     1     153.791 164.900 182.678  0.00  0.00    +0.023 HD
ATOM     75  H   UNL     1     153.771 166.556 183.311  0.00  0.00    +0.023 HD
ATOM     76  H   UNL     1     155.303 165.734 183.003  0.00  0.00    +0.023 HD
ENDBRANCH  71  73
BRANCH  71  77
ATOM     77  C   UNL     1     155.160 163.743 184.807  0.00  0.00    -0.041 C 
ATOM     78  H   UNL     1     155.813 163.733 183.925  0.00  0.00    +0.027 HD
ATOM     79  H   UNL     1     154.487 162.880 184.704  0.00  0.00    +0.027 HD
BRANCH  77  80
ATOM     80  C   UNL     1     156.021 163.523 186.051  0.00  0.00    +0.007 C 
ATOM     81  H   UNL     1     155.746 164.273 186.804  0.00  0.00    +0.034 HD
ATOM     82  H   UNL     1     155.845 162.554 186.525  0.00  0.00    +0.034 HD
BRANCH  80  83
ATOM     83  C   UNL     1     157.505 163.649 185.756  0.00  0.00    +0.139 C 
ATOM     84  O   UNL     1     157.961 163.270 184.677  0.00  0.00    -0.297 OA
BRANCH  83  85
ATOM     85  C   UNL     1     158.401 164.187 186.864  0.00  0.00    +0.041 C 
ATOM     86  H   UNL     1     157.813 164.941 187.402  0.00  0.00    +0.040 HD
BRANCH  85  87
ATOM     87  C   UNL     1     159.589 164.962 186.296  0.00  0.00    -0.053 C 
ATOM     88  H   UNL     1     160.447 164.327 186.066  0.00  0.00    +0.024 HD
ATOM     89  H   UNL     1     159.304 165.443 185.354  0.00  0.00    +0.024 HD
ATOM     90  H   UNL     1     159.918 165.749 186.980  0.00  0.00    +0.024 HD
ENDBRANCH  85  87
BRANCH  85  91
ATOM     91  C   UNL     1     158.747 163.053 187.863  0.00  0.00    +0.074 C 
ATOM     92  H   UNL     1     159.745 163.276 188.272  0.00  0.00    +0.061 HD
BRANCH  91  93
ATOM     93  C   UNL     1     157.808 162.913 189.104  0.00  0.00    +0.003 C 
ATOM     94  H   UNL     1     157.099 163.752 189.087  0.00  0.00    +0.037 HD
BRANCH  93  95
ATOM     95  C   UNL     1     158.612 163.056 190.404  0.00  0.00    -0.057 C 
ATOM     96  H   UNL     1     159.596 162.583 190.310  0.00  0.00    +0.024 HD
ATOM     97  H   UNL     1     158.767 164.107 190.675  0.00  0.00    +0.024 HD
ATOM     98  H   UNL     1     158.088 162.566 191.234  0.00  0.00    +0.024 HD
ENDBRANCH  93  95
BRANCH  93  99
ATOM     99  C   UNL     1     157.041 161.606 189.163  0.00  0.00    -0.065 C 
ATOM    100  C   UNL     1     155.701 161.558 189.144  0.00  0.00    -0.005 C 
ATOM    101  H   UNL     1     157.657 160.715 189.221  0.00  0.00    +0.059 HD
ATOM    102  H   UNL     1     155.145 162.494 189.079  0.00  0.00    +0.078 HD
BRANCH 100 103
ATOM    103  N   UNL     1     154.897 160.429 189.186  0.00  0.00    -0.284 N 
ATOM    104  C   UNL     1     153.571 160.372 188.781  0.00  0.00    +0.206 C 
ATOM    105  O   UNL     1     152.846 159.383 188.800  0.00  0.00    -0.279 OA
ATOM    106  H   UNL     1     153.179 161.332 188.421  0.00  0.00    +0.126 HD
BRANCH 103 107
ATOM    107  C   UNL     1     155.503 159.214 189.726  0.00  0.00    +0.007 C 
ATOM    108  H   UNL     1     156.198 158.751 189.017  0.00  0.00    +0.043 HD
ATOM    109  H   UNL     1     156.054 159.468 190.638  0.00  0.00    +0.043 HD
ATOM    110  H   UNL     1     154.715 158.491 189.961  0.00  0.00    +0.043 HD
ENDBRANCH 103 107
ENDBRANCH 100 103
ENDBRANCH  93  99
ENDBRANCH  91  93
BRANCH  91 111
ATOM    111  O   UNL     1     158.815 161.780 187.196  0.00  0.00    -0.379 OA
BRANCH 111 112
ATOM    112  C   UNL     1     160.135 161.278 187.044  0.00  0.00    +0.037 C 
ATOM    113  H   UNL     1     160.835 162.090 187.264  0.00  0.00    +0.052 HD
ATOM    114  H   UNL     1     160.307 160.943 186.017  0.00  0.00    +0.052 HD
ATOM    115  H   UNL     1     160.332 160.462 187.745  0.00  0.00    +0.052 HD
ENDBRANCH 111 112
ENDBRANCH  91 111
ENDBRANCH  85  91
ENDBRANCH  83  85
ENDBRANCH  80  83
ENDBRANCH  77  80
ENDBRANCH  71  77
ENDBRANCH  69  71
BRANCH  69 116
ATOM    116  O   UNL     1     155.343 167.202 185.143  0.00  0.00    -0.379 OA
BRANCH 116 117
ATOM    117  C   UNL     1     156.739 167.371 185.340  0.00  0.00    +0.037 C 
ATOM    118  H   UNL     1     157.013 167.154 186.375  0.00  0.00    +0.052 HD
ATOM    119  H   UNL     1     157.262 166.665 184.689  0.00  0.00    +0.052 HD
ATOM    120  H   UNL     1     157.048 168.384 185.073  0.00  0.00    +0.052 HD
ENDBRANCH 116 117
ENDBRANCH  69 116
ENDBRANCH  66  69
ENDBRANCH   8  66
BRANCH  31 121
ATOM    121  O   UNL     1     143.804 166.213 186.828  0.00  0.00    -0.391 OA
ATOM    122  H   UNL     1     144.547 165.968 186.249  0.00  0.00    +0.210 HD
ENDBRANCH  31 121
BRANCH  29 123
ATOM    123  O   UNL     1     141.450 167.621 189.461  0.00  0.00    -0.373 OA
BRANCH 123 124
ATOM    124  C   UNL     1     141.783 169.006 189.516  0.00  0.00    +0.037 C 
ATOM    125  H   UNL     1     142.553 169.204 188.767  0.00  0.00    +0.052 HD
ATOM    126  H   UNL     1     142.186 169.256 190.502  0.00  0.00    +0.052 HD
ATOM    127  H   UNL     1     140.915 169.633 189.296  0.00  0.00    +0.052 HD
ENDBRANCH 123 124
ENDBRANCH  29 123
BRANCH  10 128
ATOM    128  O   UNL     1     155.081 166.856 189.181  0.00  0.00    -0.379 OA
BRANCH 128 129
ATOM    129  C   UNL     1     156.333 166.191 189.265  0.00  0.00    +0.037 C 
ATOM    130  H   UNL     1     157.073 166.635 188.595  0.00  0.00    +0.052 HD
ATOM    131  H   UNL     1     156.185 165.149 188.956  0.00  0.00    +0.052 HD
ATOM    132  H   UNL     1     156.700 166.196 190.298  0.00  0.00    +0.052 HD
ENDBRANCH 128 129
ENDBRANCH  10 128
BRANCH   3 133
ATOM    133  O   UNL     1     147.366 166.731 188.367  0.00  0.00    -0.447 OA
BRANCH 133 134
ATOM    134  C   UNL     1     147.477 167.672 189.319  0.00  0.00    +0.398 C 
ATOM    135  O   UNL     1     147.588 168.875 189.148  0.00  0.00    -0.227 OA
ATOM    136  N   UNL     1     147.418 167.082 190.532  0.00  0.00    -0.295 N 
ATOM    137  H   UNL     1     147.331 166.079 190.579  0.00  0.00    +0.148 HD
ATOM    138  H   UNL     1     147.476 167.643 191.366  0.00  0.00    +0.148 HD
ENDBRANCH 133 134
ENDBRANCH   3 133
TORSDOF 29
ENDMDL
MODEL 7
REMARK VINA RESULT:      -5.0      2.007      6.200
REMARK  Name = Kabiramide C_conf1
REMARK  29 active torsions:
REMARK  status: ('A' for Active; 'I' for Inactive)
REMARK    1  A    between atoms: C_1  and  C_2
REMARK    2  A    between atoms: C_4  and  O_64
REMARK    3  A    between atoms: C_9  and  C_41
REMARK    4  A    between atoms: C_10  and  C_40
REMARK    5  A    between atoms: C_11  and  O_38
REMARK    6  A    between atoms: C_30  and  O_36
REMARK    7  A    between atoms: C_31  and  C_35
REMARK    8  A    between atoms: C_32  and  O_34
REMARK    9  A    between atoms: O_36  and  C_37
REMARK   10  A    between atoms: O_38  and  C_39
REMARK   11  A    between atoms: C_41  and  C_42
REMARK   12  A    between atoms: C_42  and  C_43
REMARK   13  A    between atoms: C_42  and  O_62
REMARK   14  A    between atoms: C_43  and  C_44
REMARK   15  A    between atoms: C_43  and  C_45
REMARK   16  A    between atoms: C_45  and  C_46
REMARK   17  A    between atoms: C_46  and  C_47
REMARK   18  A    between atoms: C_47  and  C_49
REMARK   19  A    between atoms: C_49  and  C_50
REMARK   20  A    between atoms: C_49  and  C_51
REMARK   21  A    between atoms: C_51  and  C_52
REMARK   22  A    between atoms: C_51  and  O_60
REMARK   23  A    between atoms: C_52  and  C_53
REMARK   24  A    between atoms: C_52  and  C_54
REMARK   25  A    between atoms: C_55  and  N_56
REMARK   26  A    between atoms: N_56  and  C_57
REMARK   27  A    between atoms: O_60  and  C_61
REMARK   28  A    between atoms: O_62  and  C_63
REMARK   29  A    between atoms: O_64  and  C_65
REMARK                            x       y       z     vdW  Elec       q    Type
REMARK                         _______ _______ _______ _____ _____    ______ ____
ROOT
ATOM      1  C   UNL     1     149.191 167.123 185.372  0.00  0.00    -0.038 C 
ATOM      2  C   UNL     1     148.592 168.301 186.201  0.00  0.00    -0.012 C 
ATOM      3  C   UNL     1     147.217 168.128 186.902  0.00  0.00    +0.115 C 
ATOM      4  C   UNL     1     146.009 168.464 186.027  0.00  0.00    +0.082 C 
ATOM      5  C   UNL     1     145.716 169.939 185.942  0.00  0.00    +0.311 C 
ATOM      6  O   UNL     1     146.273 170.694 185.156  0.00  0.00    -0.251 OA
ATOM      7  O   UNL     1     144.699 170.276 186.785  0.00  0.00    -0.461 OA
ATOM      8  C   UNL     1     144.017 171.532 186.547  0.00  0.00    +0.110 C 
ATOM      9  C   UNL     1     144.443 172.634 187.565  0.00  0.00    +0.020 C 
ATOM     10  C   UNL     1     143.922 172.515 189.028  0.00  0.00    +0.068 C 
ATOM     11  C   UNL     1     144.187 171.174 189.743  0.00  0.00    -0.008 C 
ATOM     12  C   UNL     1     145.595 170.897 190.171  0.00  0.00    -0.077 C 
ATOM     13  C   UNL     1     146.355 171.698 190.939  0.00  0.00    -0.003 C 
ATOM     14  C   UNL     1     147.649 171.275 191.357  0.00  0.00    +0.220 A 
ATOM     15  N   UNL     1     148.263 170.165 190.977  0.00  0.00    -0.205 NA
ATOM     16  C   UNL     1     149.428 170.123 191.694  0.00  0.00    +0.164 A 
ATOM     17  C   UNL     1     149.530 171.239 192.475  0.00  0.00    +0.125 A 
ATOM     18  O   UNL     1     148.415 171.998 192.265  0.00  0.00    -0.443 OA
ATOM     19  C   UNL     1     150.445 168.952 191.601  0.00  0.00    +0.250 A 
ATOM     20  N   UNL     1     150.252 167.929 190.793  0.00  0.00    -0.203 NA
ATOM     21  C   UNL     1     151.335 167.118 190.999  0.00  0.00    +0.164 A 
ATOM     22  C   UNL     1     152.160 167.672 191.942  0.00  0.00    +0.125 A 
ATOM     23  O   UNL     1     151.604 168.856 192.341  0.00  0.00    -0.442 OA
ATOM     24  C   UNL     1     151.555 165.776 190.244  0.00  0.00    +0.249 A 
ATOM     25  N   UNL     1     150.700 165.328 189.343  0.00  0.00    -0.210 NA
ATOM     26  C   UNL     1     151.257 164.169 188.871  0.00  0.00    +0.109 A 
ATOM     27  C   UNL     1     152.434 163.932 189.541  0.00  0.00    +0.118 A 
ATOM     28  O   UNL     1     152.639 164.952 190.421  0.00  0.00    -0.442 OA
ATOM     29  C   UNL     1     150.591 163.377 187.782  0.00  0.00    +0.108 C 
ATOM     30  C   UNL     1     151.167 163.789 186.385  0.00  0.00    +0.014 C 
ATOM     31  C   UNL     1     150.188 164.696 185.575  0.00  0.00    +0.061 C 
ATOM     32  C   UNL     1     149.831 166.020 186.274  0.00  0.00    -0.024 C 
ATOM     33  H   UNL     1     150.043 167.560 184.822  0.00  0.00    +0.030 HD
ATOM     34  H   UNL     1     148.557 169.199 185.569  0.00  0.00    +0.030 HD
ATOM     35  H   UNL     1     149.325 168.534 186.990  0.00  0.00    +0.030 HD
ATOM     36  H   UNL     1     147.217 168.784 187.784  0.00  0.00    +0.074 HD
ATOM     37  H   UNL     1     145.104 167.958 186.397  0.00  0.00    +0.041 HD
ATOM     38  H   UNL     1     146.110 168.083 185.005  0.00  0.00    +0.041 HD
ATOM     39  H   UNL     1     144.262 171.906 185.544  0.00  0.00    +0.074 HD
ATOM     40  H   UNL     1     143.990 173.561 187.176  0.00  0.00    +0.036 HD
ATOM     41  H   UNL     1     144.383 173.329 189.604  0.00  0.00    +0.060 HD
ATOM     42  H   UNL     1     143.563 171.094 190.641  0.00  0.00    +0.033 HD
ATOM     43  H   UNL     1     143.839 170.340 189.126  0.00  0.00    +0.033 HD
ATOM     44  H   UNL     1     145.982 169.919 189.868  0.00  0.00    +0.057 HD
ATOM     45  H   UNL     1     145.994 172.646 191.313  0.00  0.00    +0.067 HD
ATOM     46  H   UNL     1     150.254 171.622 193.180  0.00  0.00    +0.105 HD
ATOM     47  H   UNL     1     153.096 167.397 192.405  0.00  0.00    +0.105 HD
ATOM     48  H   UNL     1     153.184 163.157 189.513  0.00  0.00    +0.105 HD
ATOM     49  H   UNL     1     149.515 163.586 187.806  0.00  0.00    +0.067 HD
ATOM     50  H   UNL     1     152.086 164.382 186.532  0.00  0.00    +0.035 HD
ATOM     51  H   UNL     1     150.654 164.933 184.610  0.00  0.00    +0.060 HD
ATOM     52  H   UNL     1     150.743 166.457 186.704  0.00  0.00    +0.029 HD
ATOM     53  H   UNL     1     149.169 165.801 187.113  0.00  0.00    +0.029 HD
ENDROOT
BRANCH   1  54
ATOM     54  C   UNL     1     148.231 166.616 184.296  0.00  0.00    -0.062 C 
ATOM     55  H   UNL     1     148.745 166.395 183.354  0.00  0.00    +0.023 HD
ATOM     56  H   UNL     1     147.444 167.352 184.087  0.00  0.00    +0.023 HD
ATOM     57  H   UNL     1     147.715 165.711 184.635  0.00  0.00    +0.023 HD
ENDBRANCH   1  54
BRANCH  30  58
ATOM     58  C   UNL     1     151.580 162.574 185.536  0.00  0.00    -0.057 C 
ATOM     59  H   UNL     1     152.663 162.551 185.394  0.00  0.00    +0.023 HD
ATOM     60  H   UNL     1     151.107 162.590 184.549  0.00  0.00    +0.023 HD
ATOM     61  H   UNL     1     151.297 161.645 186.037  0.00  0.00    +0.023 HD
ENDBRANCH  30  58
BRANCH   9  62
ATOM     62  C   UNL     1     145.959 172.870 187.527  0.00  0.00    -0.057 C 
ATOM     63  H   UNL     1     146.350 172.684 186.518  0.00  0.00    +0.023 HD
ATOM     64  H   UNL     1     146.201 173.908 187.775  0.00  0.00    +0.023 HD
ATOM     65  H   UNL     1     146.504 172.221 188.217  0.00  0.00    +0.023 HD
ENDBRANCH   9  62
BRANCH   8  66
ATOM     66  C   UNL     1     142.501 171.245 186.560  0.00  0.00    +0.011 C 
ATOM     67  H   UNL     1     141.993 172.038 185.996  0.00  0.00    +0.033 HD
ATOM     68  H   UNL     1     142.151 171.272 187.599  0.00  0.00    +0.033 HD
BRANCH  66  69
ATOM     69  C   UNL     1     142.111 169.868 185.988  0.00  0.00    +0.064 C 
ATOM     70  H   UNL     1     143.010 169.248 185.932  0.00  0.00    +0.060 HD
BRANCH  69  71
ATOM     71  C   UNL     1     141.069 169.166 186.905  0.00  0.00    -0.017 C 
ATOM     72  H   UNL     1     140.229 169.852 187.053  0.00  0.00    +0.032 HD
BRANCH  71  73
ATOM     73  C   UNL     1     140.489 167.888 186.278  0.00  0.00    -0.060 C 
ATOM     74  H   UNL     1     140.449 167.959 185.190  0.00  0.00    +0.023 HD
ATOM     75  H   UNL     1     141.070 167.002 186.546  0.00  0.00    +0.023 HD
ATOM     76  H   UNL     1     139.464 167.732 186.627  0.00  0.00    +0.023 HD
ENDBRANCH  71  73
BRANCH  71  77
ATOM     77  C   UNL     1     141.647 168.807 188.298  0.00  0.00    -0.041 C 
ATOM     78  H   UNL     1     140.854 168.376 188.921  0.00  0.00    +0.027 HD
ATOM     79  H   UNL     1     141.961 169.736 188.795  0.00  0.00    +0.027 HD
BRANCH  77  80
ATOM     80  C   UNL     1     142.838 167.849 188.296  0.00  0.00    +0.007 C 
ATOM     81  H   UNL     1     142.987 167.477 187.275  0.00  0.00    +0.034 HD
ATOM     82  H   UNL     1     143.777 168.336 188.570  0.00  0.00    +0.034 HD
BRANCH  80  83
ATOM     83  C   UNL     1     142.627 166.663 189.221  0.00  0.00    +0.139 C 
ATOM     84  O   UNL     1     141.616 165.967 189.122  0.00  0.00    -0.297 OA
BRANCH  83  85
ATOM     85  C   UNL     1     143.667 166.422 190.307  0.00  0.00    +0.041 C 
ATOM     86  H   UNL     1     144.551 167.008 190.027  0.00  0.00    +0.040 HD
BRANCH  85  87
ATOM     87  C   UNL     1     144.152 164.973 190.306  0.00  0.00    -0.053 C 
ATOM     88  H   UNL     1     145.239 164.883 190.281  0.00  0.00    +0.024 HD
ATOM     89  H   UNL     1     143.824 164.470 191.223  0.00  0.00    +0.024 HD
ATOM     90  H   UNL     1     143.741 164.414 189.461  0.00  0.00    +0.024 HD
ENDBRANCH  85  87
BRANCH  85  91
ATOM     91  C   UNL     1     143.149 166.962 191.665  0.00  0.00    +0.074 C 
ATOM     92  H   UNL     1     142.051 166.891 191.644  0.00  0.00    +0.061 HD
BRANCH  91  93
ATOM     93  C   UNL     1     143.595 166.175 192.939  0.00  0.00    +0.003 C 
ATOM     94  H   UNL     1     143.519 165.102 192.716  0.00  0.00    +0.037 HD
BRANCH  93  95
ATOM     95  C   UNL     1     142.628 166.441 194.101  0.00  0.00    -0.057 C 
ATOM     96  H   UNL     1     142.628 165.606 194.810  0.00  0.00    +0.024 HD
ATOM     97  H   UNL     1     142.891 167.352 194.651  0.00  0.00    +0.024 HD
ATOM     98  H   UNL     1     141.602 166.556 193.728  0.00  0.00    +0.024 HD
ENDBRANCH  93  95
BRANCH  93  99
ATOM     99  C   UNL     1     145.000 166.493 193.410  0.00  0.00    -0.065 C 
ATOM    100  C   UNL     1     145.887 165.538 193.723  0.00  0.00    -0.005 C 
ATOM    101  H   UNL     1     145.234 167.551 193.476  0.00  0.00    +0.059 HD
ATOM    102  H   UNL     1     145.586 164.493 193.629  0.00  0.00    +0.078 HD
BRANCH 100 103
ATOM    103  N   UNL     1     147.193 165.708 194.156  0.00  0.00    -0.284 N 
ATOM    104  C   UNL     1     148.309 165.787 193.333  0.00  0.00    +0.206 C 
ATOM    105  O   UNL     1     149.470 165.948 193.693  0.00  0.00    -0.279 OA
ATOM    106  H   UNL     1     148.076 165.687 192.264  0.00  0.00    +0.126 HD
BRANCH 103 107
ATOM    107  C   UNL     1     147.400 165.783 195.601  0.00  0.00    +0.007 C 
ATOM    108  H   UNL     1     148.227 166.452 195.863  0.00  0.00    +0.043 HD
ATOM    109  H   UNL     1     146.485 166.160 196.070  0.00  0.00    +0.043 HD
ATOM    110  H   UNL     1     147.627 164.784 195.986  0.00  0.00    +0.043 HD
ENDBRANCH 103 107
ENDBRANCH 100 103
ENDBRANCH  93  99
ENDBRANCH  91  93
BRANCH  91 111
ATOM    111  O   UNL     1     143.501 168.347 191.838  0.00  0.00    -0.379 OA
BRANCH 111 112
ATOM    112  C   UNL     1     142.384 169.220 191.919  0.00  0.00    +0.037 C 
ATOM    113  H   UNL     1     142.757 170.248 191.955  0.00  0.00    +0.052 HD
ATOM    114  H   UNL     1     141.808 169.030 192.829  0.00  0.00    +0.052 HD
ATOM    115  H   UNL     1     141.742 169.123 191.039  0.00  0.00    +0.052 HD
ENDBRANCH 111 112
ENDBRANCH  91 111
ENDBRANCH  85  91
ENDBRANCH  83  85
ENDBRANCH  80  83
ENDBRANCH  77  80
ENDBRANCH  71  77
ENDBRANCH  69  71
BRANCH  69 116
ATOM    116  O   UNL     1     141.532 170.047 184.691  0.00  0.00    -0.379 OA
BRANCH 116 117
ATOM    117  C   UNL     1     142.428 169.785 183.622  0.00  0.00    +0.037 C 
ATOM    118  H   UNL     1     143.028 168.897 183.830  0.00  0.00    +0.052 HD
ATOM    119  H   UNL     1     141.838 169.601 182.720  0.00  0.00    +0.052 HD
ATOM    120  H   UNL     1     143.077 170.645 183.442  0.00  0.00    +0.052 HD
ENDBRANCH 116 117
ENDBRANCH  69 116
ENDBRANCH  66  69
ENDBRANCH   8  66
BRANCH  31 121
ATOM    121  O   UNL     1     148.983 163.968 185.327  0.00  0.00    -0.391 OA
ATOM    122  H   UNL     1     148.459 163.989 186.147  0.00  0.00    +0.210 HD
ENDBRANCH  31 121
BRANCH  29 123
ATOM    123  O   UNL     1     150.779 161.965 188.014  0.00  0.00    -0.373 OA
BRANCH 123 124
ATOM    124  C   UNL     1     149.564 161.235 187.873  0.00  0.00    +0.037 C 
ATOM    125  H   UNL     1     149.802 160.241 187.490  0.00  0.00    +0.052 HD
ATOM    126  H   UNL     1     148.907 161.735 187.154  0.00  0.00    +0.052 HD
ATOM    127  H   UNL     1     149.051 161.124 188.833  0.00  0.00    +0.052 HD
ENDBRANCH 123 124
ENDBRANCH  29 123
BRANCH  10 128
ATOM    128  O   UNL     1     142.503 172.784 188.989  0.00  0.00    -0.379 OA
BRANCH 128 129
ATOM    129  C   UNL     1     141.806 172.446 190.180  0.00  0.00    +0.037 C 
ATOM    130  H   UNL     1     142.009 171.418 190.489  0.00  0.00    +0.052 HD
ATOM    131  H   UNL     1     140.731 172.530 189.978  0.00  0.00    +0.052 HD
ATOM    132  H   UNL     1     142.063 173.146 190.983  0.00  0.00    +0.052 HD
ENDBRANCH 128 129
ENDBRANCH  10 128
BRANCH   3 133
ATOM    133  O   UNL     1     147.099 166.757 187.324  0.00  0.00    -0.447 OA
BRANCH 133 134
ATOM    134  C   UNL     1     147.174 166.490 188.638  0.00  0.00    +0.398 C 
ATOM    135  O   UNL     1     146.949 167.263 189.555  0.00  0.00    -0.227 OA
ATOM    136  N   UNL     1     147.516 165.194 188.806  0.00  0.00    -0.295 N 
ATOM    137  H   UNL     1     147.688 164.629 187.989  0.00  0.00    +0.148 HD
ATOM    138  H   UNL     1     147.609 164.817 189.734  0.00  0.00    +0.148 HD
ENDBRANCH 133 134
ENDBRANCH   3 133
TORSDOF 29
ENDMDL
MODEL 8
REMARK VINA RESULT:      -5.0      1.473      3.159
REMARK  Name = Kabiramide C_conf1
REMARK  29 active torsions:
REMARK  status: ('A' for Active; 'I' for Inactive)
REMARK    1  A    between atoms: C_1  and  C_2
REMARK    2  A    between atoms: C_4  and  O_64
REMARK    3  A    between atoms: C_9  and  C_41
REMARK    4  A    between atoms: C_10  and  C_40
REMARK    5  A    between atoms: C_11  and  O_38
REMARK    6  A    between atoms: C_30  and  O_36
REMARK    7  A    between atoms: C_31  and  C_35
REMARK    8  A    between atoms: C_32  and  O_34
REMARK    9  A    between atoms: O_36  and  C_37
REMARK   10  A    between atoms: O_38  and  C_39
REMARK   11  A    between atoms: C_41  and  C_42
REMARK   12  A    between atoms: C_42  and  C_43
REMARK   13  A    between atoms: C_42  and  O_62
REMARK   14  A    between atoms: C_43  and  C_44
REMARK   15  A    between atoms: C_43  and  C_45
REMARK   16  A    between atoms: C_45  and  C_46
REMARK   17  A    between atoms: C_46  and  C_47
REMARK   18  A    between atoms: C_47  and  C_49
REMARK   19  A    between atoms: C_49  and  C_50
REMARK   20  A    between atoms: C_49  and  C_51
REMARK   21  A    between atoms: C_51  and  C_52
REMARK   22  A    between atoms: C_51  and  O_60
REMARK   23  A    between atoms: C_52  and  C_53
REMARK   24  A    between atoms: C_52  and  C_54
REMARK   25  A    between atoms: C_55  and  N_56
REMARK   26  A    between atoms: N_56  and  C_57
REMARK   27  A    between atoms: O_60  and  C_61
REMARK   28  A    between atoms: O_62  and  C_63
REMARK   29  A    between atoms: O_64  and  C_65
REMARK                            x       y       z     vdW  Elec       q    Type
REMARK                         _______ _______ _______ _____ _____    ______ ____
ROOT
ATOM      1  C   UNL     1     149.225 170.647 192.044  0.00  0.00    -0.038 C 
ATOM      2  C   UNL     1     147.685 170.599 191.796  0.00  0.00    -0.012 C 
ATOM      3  C   UNL     1     147.141 170.116 190.424  0.00  0.00    +0.115 C 
ATOM      4  C   UNL     1     147.022 171.212 189.364  0.00  0.00    +0.082 C 
ATOM      5  C   UNL     1     145.777 172.048 189.498  0.00  0.00    +0.311 C 
ATOM      6  O   UNL     1     145.688 173.011 190.250  0.00  0.00    -0.251 OA
ATOM      7  O   UNL     1     144.825 171.639 188.612  0.00  0.00    -0.461 OA
ATOM      8  C   UNL     1     143.745 172.559 188.313  0.00  0.00    +0.110 C 
ATOM      9  C   UNL     1     142.417 172.158 189.026  0.00  0.00    +0.020 C 
ATOM     10  C   UNL     1     141.644 170.919 188.484  0.00  0.00    +0.068 C 
ATOM     11  C   UNL     1     142.450 169.611 188.357  0.00  0.00    -0.008 C 
ATOM     12  C   UNL     1     142.797 168.899 189.628  0.00  0.00    -0.077 C 
ATOM     13  C   UNL     1     141.925 168.516 190.578  0.00  0.00    -0.003 C 
ATOM     14  C   UNL     1     142.371 167.759 191.699  0.00  0.00    +0.220 A 
ATOM     15  N   UNL     1     143.628 167.452 191.978  0.00  0.00    -0.205 NA
ATOM     16  C   UNL     1     143.575 166.642 193.080  0.00  0.00    +0.164 A 
ATOM     17  C   UNL     1     142.279 166.500 193.487  0.00  0.00    +0.125 A 
ATOM     18  O   UNL     1     141.493 167.218 192.631  0.00  0.00    -0.443 OA
ATOM     19  C   UNL     1     144.833 165.999 193.726  0.00  0.00    +0.250 A 
ATOM     20  N   UNL     1     146.045 166.222 193.258  0.00  0.00    -0.203 NA
ATOM     21  C   UNL     1     146.868 165.489 194.068  0.00  0.00    +0.164 A 
ATOM     22  C   UNL     1     146.127 164.826 195.010  0.00  0.00    +0.125 A 
ATOM     23  O   UNL     1     144.812 165.144 194.807  0.00  0.00    -0.442 OA
ATOM     24  C   UNL     1     148.415 165.449 193.906  0.00  0.00    +0.249 A 
ATOM     25  N   UNL     1     149.040 166.132 192.965  0.00  0.00    -0.210 NA
ATOM     26  C   UNL     1     150.372 165.889 193.175  0.00  0.00    +0.109 A 
ATOM     27  C   UNL     1     150.507 165.023 194.234  0.00  0.00    +0.118 A 
ATOM     28  O   UNL     1     149.265 164.734 194.713  0.00  0.00    -0.442 OA
ATOM     29  C   UNL     1     151.423 166.537 192.320  0.00  0.00    +0.108 C 
ATOM     30  C   UNL     1     151.933 167.854 192.997  0.00  0.00    +0.014 C 
ATOM     31  C   UNL     1     151.363 169.139 192.317  0.00  0.00    +0.061 C 
ATOM     32  C   UNL     1     149.828 169.238 192.343  0.00  0.00    -0.024 C 
ATOM     33  H   UNL     1     149.348 171.207 192.987  0.00  0.00    +0.030 HD
ATOM     34  H   UNL     1     147.257 171.586 192.019  0.00  0.00    +0.030 HD
ATOM     35  H   UNL     1     147.265 169.926 192.560  0.00  0.00    +0.030 HD
ATOM     36  H   UNL     1     146.149 169.678 190.603  0.00  0.00    +0.074 HD
ATOM     37  H   UNL     1     147.034 170.781 188.351  0.00  0.00    +0.041 HD
ATOM     38  H   UNL     1     147.882 171.889 189.360  0.00  0.00    +0.041 HD
ATOM     39  H   UNL     1     144.007 173.568 188.659  0.00  0.00    +0.074 HD
ATOM     40  H   UNL     1     141.742 173.014 188.854  0.00  0.00    +0.036 HD
ATOM     41  H   UNL     1     140.788 170.754 189.152  0.00  0.00    +0.060 HD
ATOM     42  H   UNL     1     141.908 168.892 187.731  0.00  0.00    +0.033 HD
ATOM     43  H   UNL     1     143.371 169.785 187.793  0.00  0.00    +0.033 HD
ATOM     44  H   UNL     1     143.852 168.624 189.726  0.00  0.00    +0.057 HD
ATOM     45  H   UNL     1     140.865 168.712 190.496  0.00  0.00    +0.067 HD
ATOM     46  H   UNL     1     141.777 165.974 194.285  0.00  0.00    +0.105 HD
ATOM     47  H   UNL     1     146.341 164.154 195.828  0.00  0.00    +0.105 HD
ATOM     48  H   UNL     1     151.340 164.557 194.737  0.00  0.00    +0.105 HD
ATOM     49  H   UNL     1     150.980 166.778 191.346  0.00  0.00    +0.067 HD
ATOM     50  H   UNL     1     151.588 167.881 194.044  0.00  0.00    +0.035 HD
ATOM     51  H   UNL     1     151.772 170.016 192.836  0.00  0.00    +0.060 HD
ATOM     52  H   UNL     1     149.465 168.946 193.339  0.00  0.00    +0.029 HD
ATOM     53  H   UNL     1     149.422 168.508 191.641  0.00  0.00    +0.029 HD
ENDROOT
BRANCH   1  54
ATOM     54  C   UNL     1     149.963 171.467 190.987  0.00  0.00    -0.062 C 
ATOM     55  H   UNL     1     149.282 172.096 190.402  0.00  0.00    +0.023 HD
ATOM     56  H   UNL     1     150.507 170.818 190.289  0.00  0.00    +0.023 HD
ATOM     57  H   UNL     1     150.719 172.108 191.454  0.00  0.00    +0.023 HD
ENDBRANCH   1  54
BRANCH  30  58
ATOM     58  C   UNL     1     153.469 167.929 193.056  0.00  0.00    -0.057 C 
ATOM     59  H   UNL     1     153.835 167.615 194.036  0.00  0.00    +0.023 HD
ATOM     60  H   UNL     1     153.832 168.944 192.865  0.00  0.00    +0.023 HD
ATOM     61  H   UNL     1     153.912 167.261 192.313  0.00  0.00    +0.023 HD
ENDBRANCH  30  58
BRANCH   9  62
ATOM     62  C   UNL     1     142.605 172.082 190.548  0.00  0.00    -0.057 C 
ATOM     63  H   UNL     1     141.651 171.852 191.040  0.00  0.00    +0.023 HD
ATOM     64  H   UNL     1     143.302 171.282 190.817  0.00  0.00    +0.023 HD
ATOM     65  H   UNL     1     142.981 173.016 190.973  0.00  0.00    +0.023 HD
ENDBRANCH   9  62
BRANCH   8  66
ATOM     66  C   UNL     1     143.614 172.633 186.777  0.00  0.00    +0.011 C 
ATOM     67  H   UNL     1     142.972 173.486 186.525  0.00  0.00    +0.033 HD
ATOM     68  H   UNL     1     143.131 171.712 186.426  0.00  0.00    +0.033 HD
BRANCH  66  69
ATOM     69  C   UNL     1     144.956 172.752 186.030  0.00  0.00    +0.064 C 
ATOM     70  H   UNL     1     145.765 172.524 186.730  0.00  0.00    +0.060 HD
BRANCH  69  71
ATOM     71  C   UNL     1     145.017 171.748 184.844  0.00  0.00    -0.017 C 
ATOM     72  H   UNL     1     144.105 171.866 184.251  0.00  0.00    +0.032 HD
BRANCH  71  73
ATOM     73  C   UNL     1     146.196 172.017 183.896  0.00  0.00    -0.060 C 
ATOM     74  H   UNL     1     146.485 173.069 183.905  0.00  0.00    +0.023 HD
ATOM     75  H   UNL     1     147.072 171.415 184.152  0.00  0.00    +0.023 HD
ATOM     76  H   UNL     1     145.913 171.772 182.867  0.00  0.00    +0.023 HD
ENDBRANCH  71  73
BRANCH  71  77
ATOM     77  C   UNL     1     145.095 170.273 185.314  0.00  0.00    -0.041 C 
ATOM     78  H   UNL     1     144.720 169.617 184.519  0.00  0.00    +0.027 HD
ATOM     79  H   UNL     1     144.417 170.143 186.168  0.00  0.00    +0.027 HD
BRANCH  77  80
ATOM     80  C   UNL     1     146.481 169.783 185.734  0.00  0.00    +0.007 C 
ATOM     81  H   UNL     1     147.026 169.463 184.837  0.00  0.00    +0.034 HD
ATOM     82  H   UNL     1     147.092 170.569 186.184  0.00  0.00    +0.034 HD
BRANCH  80  83
ATOM     83  C   UNL     1     146.412 168.617 186.704  0.00  0.00    +0.139 C 
ATOM     84  O   UNL     1     145.527 168.568 187.559  0.00  0.00    -0.297 OA
BRANCH  83  85
ATOM     85  C   UNL     1     147.511 167.566 186.623  0.00  0.00    +0.041 C 
ATOM     86  H   UNL     1     147.924 167.469 187.635  0.00  0.00    +0.040 HD
BRANCH  85  87
ATOM     87  C   UNL     1     148.686 168.049 185.774  0.00  0.00    -0.053 C 
ATOM     88  H   UNL     1     148.386 168.711 184.960  0.00  0.00    +0.024 HD
ATOM     89  H   UNL     1     149.382 168.624 186.395  0.00  0.00    +0.024 HD
ATOM     90  H   UNL     1     149.243 167.211 185.347  0.00  0.00    +0.024 HD
ENDBRANCH  85  87
BRANCH  85  91
ATOM     91  C   UNL     1     146.905 166.195 186.224  0.00  0.00    +0.074 C 
ATOM     92  H   UNL     1     147.701 165.626 185.719  0.00  0.00    +0.061 HD
BRANCH  91  93
ATOM     93  C   UNL     1     146.420 165.285 187.397  0.00  0.00    +0.003 C 
ATOM     94  H   UNL     1     146.709 165.767 188.341  0.00  0.00    +0.037 HD
BRANCH  93  95
ATOM     95  C   UNL     1     147.148 163.934 187.365  0.00  0.00    -0.057 C 
ATOM     96  H   UNL     1     146.433 163.105 187.322  0.00  0.00    +0.024 HD
ATOM     97  H   UNL     1     147.815 163.849 186.499  0.00  0.00    +0.024 HD
ATOM     98  H   UNL     1     147.752 163.802 188.271  0.00  0.00    +0.024 HD
ENDBRANCH  93  95
BRANCH  93  99
ATOM     99  C   UNL     1     144.928 165.018 187.404  0.00  0.00    -0.065 C 
ATOM    100  C   UNL     1     144.325 164.328 188.384  0.00  0.00    -0.005 C 
ATOM    101  H   UNL     1     144.384 165.426 186.559  0.00  0.00    +0.059 HD
ATOM    102  H   UNL     1     144.933 163.950 189.207  0.00  0.00    +0.078 HD
BRANCH 100 103
ATOM    103  N   UNL     1     142.977 164.029 188.499  0.00  0.00    -0.284 N 
ATOM    104  C   UNL     1     142.404 162.788 188.258  0.00  0.00    +0.206 C 
ATOM    105  O   UNL     1     141.217 162.500 188.365  0.00  0.00    -0.279 OA
ATOM    106  H   UNL     1     143.126 162.024 187.941  0.00  0.00    +0.126 HD
BRANCH 103 107
ATOM    107  C   UNL     1     142.094 165.129 188.883  0.00  0.00    +0.007 C 
ATOM    108  H   UNL     1     141.144 164.770 189.292  0.00  0.00    +0.043 HD
ATOM    109  H   UNL     1     142.595 165.735 189.646  0.00  0.00    +0.043 HD
ATOM    110  H   UNL     1     141.881 165.746 188.003  0.00  0.00    +0.043 HD
ENDBRANCH 103 107
ENDBRANCH 100 103
ENDBRANCH  93  99
ENDBRANCH  91  93
BRANCH  91 111
ATOM    111  O   UNL     1     145.819 166.361 185.295  0.00  0.00    -0.379 OA
BRANCH 111 112
ATOM    112  C   UNL     1     146.141 165.999 183.960  0.00  0.00    +0.037 C 
ATOM    113  H   UNL     1     147.054 166.528 183.674  0.00  0.00    +0.052 HD
ATOM    114  H   UNL     1     145.342 166.295 183.275  0.00  0.00    +0.052 HD
ATOM    115  H   UNL     1     146.331 164.924 183.877  0.00  0.00    +0.052 HD
ENDBRANCH 111 112
ENDBRANCH  91 111
ENDBRANCH  85  91
ENDBRANCH  83  85
ENDBRANCH  80  83
ENDBRANCH  77  80
ENDBRANCH  71  77
ENDBRANCH  69  71
BRANCH  69 116
ATOM    116  O   UNL     1     145.088 174.080 185.513  0.00  0.00    -0.379 OA
BRANCH 116 117
ATOM    117  C   UNL     1     146.116 174.837 186.133  0.00  0.00    +0.037 C 
ATOM    118  H   UNL     1     146.810 175.231 185.387  0.00  0.00    +0.052 HD
ATOM    119  H   UNL     1     145.652 175.680 186.652  0.00  0.00    +0.052 HD
ATOM    120  H   UNL     1     146.654 174.232 186.865  0.00  0.00    +0.052 HD
ENDBRANCH 116 117
ENDBRANCH  69 116
ENDBRANCH  66  69
ENDBRANCH   8  66
BRANCH  31 121
ATOM    121  O   UNL     1     151.804 169.175 190.957  0.00  0.00    -0.391 OA
ATOM    122  H   UNL     1     151.034 168.969 190.399  0.00  0.00    +0.210 HD
ENDBRANCH  31 121
BRANCH  29 123
ATOM    123  O   UNL     1     152.515 165.620 192.102  0.00  0.00    -0.373 OA
BRANCH 123 124
ATOM    124  C   UNL     1     152.442 164.998 190.821  0.00  0.00    +0.037 C 
ATOM    125  H   UNL     1     153.340 164.393 190.681  0.00  0.00    +0.052 HD
ATOM    126  H   UNL     1     152.412 165.760 190.036  0.00  0.00    +0.052 HD
ATOM    127  H   UNL     1     151.568 164.346 190.744  0.00  0.00    +0.052 HD
ENDBRANCH 123 124
ENDBRANCH  29 123
BRANCH  10 128
ATOM    128  O   UNL     1     141.103 171.295 187.199  0.00  0.00    -0.379 OA
BRANCH 128 129
ATOM    129  C   UNL     1     140.606 170.210 186.429  0.00  0.00    +0.037 C 
ATOM    130  H   UNL     1     141.384 169.472 186.221  0.00  0.00    +0.052 HD
ATOM    131  H   UNL     1     140.257 170.609 185.468  0.00  0.00    +0.052 HD
ATOM    132  H   UNL     1     139.757 169.739 186.937  0.00  0.00    +0.052 HD
ENDBRANCH 128 129
ENDBRANCH  10 128
BRANCH   3 133
ATOM    133  O   UNL     1     148.029 169.101 189.922  0.00  0.00    -0.447 OA
BRANCH 133 134
ATOM    134  C   UNL     1     147.670 167.815 190.069  0.00  0.00    +0.398 C 
ATOM    135  O   UNL     1     148.385 166.836 189.931  0.00  0.00    -0.227 OA
ATOM    136  N   UNL     1     146.370 167.758 190.430  0.00  0.00    -0.295 N 
ATOM    137  H   UNL     1     145.853 168.620 190.516  0.00  0.00    +0.148 HD
ATOM    138  H   UNL     1     145.933 166.867 190.594  0.00  0.00    +0.148 HD
ENDBRANCH 133 134
ENDBRANCH   3 133
TORSDOF 29
ENDMDL
MODEL 9
REMARK VINA RESULT:      -4.9      3.306      9.377
REMARK  Name = Kabiramide C_conf1
REMARK  29 active torsions:
REMARK  status: ('A' for Active; 'I' for Inactive)
REMARK    1  A    between atoms: C_1  and  C_2
REMARK    2  A    between atoms: C_4  and  O_64
REMARK    3  A    between atoms: C_9  and  C_41
REMARK    4  A    between atoms: C_10  and  C_40
REMARK    5  A    between atoms: C_11  and  O_38
REMARK    6  A    between atoms: C_30  and  O_36
REMARK    7  A    between atoms: C_31  and  C_35
REMARK    8  A    between atoms: C_32  and  O_34
REMARK    9  A    between atoms: O_36  and  C_37
REMARK   10  A    between atoms: O_38  and  C_39
REMARK   11  A    between atoms: C_41  and  C_42
REMARK   12  A    between atoms: C_42  and  C_43
REMARK   13  A    between atoms: C_42  and  O_62
REMARK   14  A    between atoms: C_43  and  C_44
REMARK   15  A    between atoms: C_43  and  C_45
REMARK   16  A    between atoms: C_45  and  C_46
REMARK   17  A    between atoms: C_46  and  C_47
REMARK   18  A    between atoms: C_47  and  C_49
REMARK   19  A    between atoms: C_49  and  C_50
REMARK   20  A    between atoms: C_49  and  C_51
REMARK   21  A    between atoms: C_51  and  C_52
REMARK   22  A    between atoms: C_51  and  O_60
REMARK   23  A    between atoms: C_52  and  C_53
REMARK   24  A    between atoms: C_52  and  C_54
REMARK   25  A    between atoms: C_55  and  N_56
REMARK   26  A    between atoms: N_56  and  C_57
REMARK   27  A    between atoms: O_60  and  C_61
REMARK   28  A    between atoms: O_62  and  C_63
REMARK   29  A    between atoms: O_64  and  C_65
REMARK                            x       y       z     vdW  Elec       q    Type
REMARK                         _______ _______ _______ _____ _____    ______ ____
ROOT
ATOM      1  C   UNL     1     146.134 164.123 187.752  0.00  0.00    -0.038 C 
ATOM      2  C   UNL     1     147.512 164.210 188.478  0.00  0.00    -0.012 C 
ATOM      3  C   UNL     1     148.347 165.517 188.391  0.00  0.00    +0.115 C 
ATOM      4  C   UNL     1     149.268 165.605 187.175  0.00  0.00    +0.082 C 
ATOM      5  C   UNL     1     150.565 164.858 187.343  0.00  0.00    +0.311 C 
ATOM      6  O   UNL     1     150.685 163.658 187.126  0.00  0.00    -0.251 OA
ATOM      7  O   UNL     1     151.574 165.712 187.672  0.00  0.00    -0.461 OA
ATOM      8  C   UNL     1     152.935 165.254 187.475  0.00  0.00    +0.110 C 
ATOM      9  C   UNL     1     153.622 164.856 188.817  0.00  0.00    +0.020 C 
ATOM     10  C   UNL     1     154.043 166.000 189.787  0.00  0.00    +0.068 C 
ATOM     11  C   UNL     1     152.944 167.010 190.174  0.00  0.00    -0.008 C 
ATOM     12  C   UNL     1     151.884 166.533 191.120  0.00  0.00    -0.077 C 
ATOM     13  C   UNL     1     152.098 165.983 192.328  0.00  0.00    -0.003 C 
ATOM     14  C   UNL     1     151.000 165.659 193.175  0.00  0.00    +0.220 A 
ATOM     15  N   UNL     1     149.719 165.752 192.855  0.00  0.00    -0.205 NA
ATOM     16  C   UNL     1     149.029 165.432 193.992  0.00  0.00    +0.164 A 
ATOM     17  C   UNL     1     149.905 165.103 194.987  0.00  0.00    +0.125 A 
ATOM     18  O   UNL     1     151.169 165.223 194.484  0.00  0.00    -0.443 OA
ATOM     19  C   UNL     1     147.478 165.464 194.086  0.00  0.00    +0.250 A 
ATOM     20  N   UNL     1     146.727 165.780 193.050  0.00  0.00    -0.203 NA
ATOM     21  C   UNL     1     145.444 165.709 193.520  0.00  0.00    +0.164 A 
ATOM     22  C   UNL     1     145.451 165.356 194.844  0.00  0.00    +0.125 A 
ATOM     23  O   UNL     1     146.753 165.192 195.226  0.00  0.00    -0.442 OA
ATOM     24  C   UNL     1     144.193 165.990 192.639  0.00  0.00    +0.249 A 
ATOM     25  N   UNL     1     144.291 166.318 191.364  0.00  0.00    -0.210 NA
ATOM     26  C   UNL     1     142.997 166.430 190.926  0.00  0.00    +0.109 A 
ATOM     27  C   UNL     1     142.146 166.195 191.980  0.00  0.00    +0.118 A 
ATOM     28  O   UNL     1     142.895 165.911 193.082  0.00  0.00    -0.442 OA
ATOM     29  C   UNL     1     142.690 166.752 189.492  0.00  0.00    +0.108 C 
ATOM     30  C   UNL     1     142.464 165.433 188.678  0.00  0.00    +0.014 C 
ATOM     31  C   UNL     1     143.680 165.072 187.768  0.00  0.00    +0.061 C 
ATOM     32  C   UNL     1     144.998 164.857 188.533  0.00  0.00    -0.024 C 
ATOM     33  H   UNL     1     145.854 163.056 187.792  0.00  0.00    +0.030 HD
ATOM     34  H   UNL     1     148.139 163.368 188.155  0.00  0.00    +0.030 HD
ATOM     35  H   UNL     1     147.316 164.027 189.547  0.00  0.00    +0.030 HD
ATOM     36  H   UNL     1     148.952 165.578 189.307  0.00  0.00    +0.074 HD
ATOM     37  H   UNL     1     149.509 166.654 186.941  0.00  0.00    +0.041 HD
ATOM     38  H   UNL     1     148.790 165.246 186.257  0.00  0.00    +0.041 HD
ATOM     39  H   UNL     1     152.939 164.364 186.832  0.00  0.00    +0.074 HD
ATOM     40  H   UNL     1     154.567 164.378 188.513  0.00  0.00    +0.036 HD
ATOM     41  H   UNL     1     154.436 165.526 190.697  0.00  0.00    +0.060 HD
ATOM     42  H   UNL     1     153.391 167.902 190.627  0.00  0.00    +0.033 HD
ATOM     43  H   UNL     1     152.457 167.405 189.277  0.00  0.00    +0.033 HD
ATOM     44  H   UNL     1     150.857 166.726 190.793  0.00  0.00    +0.057 HD
ATOM     45  H   UNL     1     153.094 165.828 192.719  0.00  0.00    +0.067 HD
ATOM     46  H   UNL     1     149.818 164.793 196.017  0.00  0.00    +0.105 HD
ATOM     47  H   UNL     1     144.700 165.186 195.601  0.00  0.00    +0.105 HD
ATOM     48  H   UNL     1     141.075 166.186 192.106  0.00  0.00    +0.105 HD
ATOM     49  H   UNL     1     143.541 167.299 189.067  0.00  0.00    +0.067 HD
ATOM     50  H   UNL     1     142.344 164.590 189.380  0.00  0.00    +0.035 HD
ATOM     51  H   UNL     1     143.444 164.148 187.225  0.00  0.00    +0.060 HD
ATOM     52  H   UNL     1     144.798 164.257 189.433  0.00  0.00    +0.029 HD
ATOM     53  H   UNL     1     145.358 165.825 188.882  0.00  0.00    +0.029 HD
ENDROOT
BRANCH   1  54
ATOM     54  C   UNL     1     146.233 164.461 186.265  0.00  0.00    -0.062 C 
ATOM     55  H   UNL     1     145.742 163.710 185.637  0.00  0.00    +0.023 HD
ATOM     56  H   UNL     1     147.280 164.539 185.944  0.00  0.00    +0.023 HD
ATOM     57  H   UNL     1     145.782 165.439 186.061  0.00  0.00    +0.023 HD
ENDBRANCH   1  54
BRANCH  30  58
ATOM     58  C   UNL     1     141.175 165.471 187.840  0.00  0.00    -0.057 C 
ATOM     59  H   UNL     1     141.144 166.368 187.217  0.00  0.00    +0.023 HD
ATOM     60  H   UNL     1     140.280 165.464 188.471  0.00  0.00    +0.023 HD
ATOM     61  H   UNL     1     141.128 164.608 187.171  0.00  0.00    +0.023 HD
ENDBRANCH  30  58
BRANCH   9  62
ATOM     62  C   UNL     1     152.825 163.766 189.547  0.00  0.00    -0.057 C 
ATOM     63  H   UNL     1     153.429 162.856 189.653  0.00  0.00    +0.023 HD
ATOM     64  H   UNL     1     152.556 164.088 190.558  0.00  0.00    +0.023 HD
ATOM     65  H   UNL     1     151.906 163.494 189.023  0.00  0.00    +0.023 HD
ENDBRANCH   9  62
BRANCH   8  66
ATOM     66  C   UNL     1     153.689 166.362 186.709  0.00  0.00    +0.011 C 
ATOM     67  H   UNL     1     154.077 167.084 187.439  0.00  0.00    +0.033 HD
ATOM     68  H   UNL     1     152.976 166.874 186.050  0.00  0.00    +0.033 HD
BRANCH  66  69
ATOM     69  C   UNL     1     154.838 165.850 185.821  0.00  0.00    +0.064 C 
ATOM     70  H   UNL     1     155.683 165.586 186.463  0.00  0.00    +0.060 HD
BRANCH  69  71
ATOM     71  C   UNL     1     154.398 164.590 185.022  0.00  0.00    -0.017 C 
ATOM     72  H   UNL     1     153.688 164.028 185.637  0.00  0.00    +0.032 HD
BRANCH  71  73
ATOM     73  C   UNL     1     153.669 164.939 183.715  0.00  0.00    -0.060 C 
ATOM     74  H   UNL     1     152.612 165.146 183.889  0.00  0.00    +0.023 HD
ATOM     75  H   UNL     1     154.115 165.804 183.217  0.00  0.00    +0.023 HD
ATOM     76  H   UNL     1     153.719 164.093 183.021  0.00  0.00    +0.023 HD
ENDBRANCH  71  73
BRANCH  71  77
ATOM     77  C   UNL     1     155.585 163.653 184.684  0.00  0.00    -0.041 C 
ATOM     78  H   UNL     1     156.175 164.092 183.869  0.00  0.00    +0.027 HD
ATOM     79  H   UNL     1     155.183 162.706 184.299  0.00  0.00    +0.027 HD
BRANCH  77  80
ATOM     80  C   UNL     1     156.526 163.328 185.844  0.00  0.00    +0.007 C 
ATOM     81  H   UNL     1     157.560 163.370 185.478  0.00  0.00    +0.034 HD
ATOM     82  H   UNL     1     156.472 164.060 186.654  0.00  0.00    +0.034 HD
BRANCH  80  83
ATOM     83  C   UNL     1     156.271 161.950 186.427  0.00  0.00    +0.139 C 
ATOM     84  O   UNL     1     156.844 160.962 185.967  0.00  0.00    -0.297 OA
BRANCH  83  85
ATOM     85  C   UNL     1     155.236 161.834 187.538  0.00  0.00    +0.041 C 
ATOM     86  H   UNL     1     154.789 162.830 187.652  0.00  0.00    +0.040 HD
BRANCH  85  87
ATOM     87  C   UNL     1     155.893 161.551 188.888  0.00  0.00    -0.053 C 
ATOM     88  H   UNL     1     156.369 160.570 188.938  0.00  0.00    +0.024 HD
ATOM     89  H   UNL     1     156.683 162.286 189.078  0.00  0.00    +0.024 HD
ATOM     90  H   UNL     1     155.172 161.625 189.707  0.00  0.00    +0.024 HD
ENDBRANCH  85  87
BRANCH  85  91
ATOM     91  C   UNL     1     154.110 160.856 187.113  0.00  0.00    +0.074 C 
ATOM     92  H   UNL     1     154.573 160.089 186.473  0.00  0.00    +0.061 HD
BRANCH  91  93
ATOM     93  C   UNL     1     153.405 160.070 188.265  0.00  0.00    +0.003 C 
ATOM     94  H   UNL     1     153.933 160.297 189.201  0.00  0.00    +0.037 HD
BRANCH  93  95
ATOM     95  C   UNL     1     153.548 158.557 188.048  0.00  0.00    -0.057 C 
ATOM     96  H   UNL     1     154.275 158.128 188.746  0.00  0.00    +0.024 HD
ATOM     97  H   UNL     1     152.595 158.033 188.189  0.00  0.00    +0.024 HD
ATOM     98  H   UNL     1     153.903 158.346 187.032  0.00  0.00    +0.024 HD
ENDBRANCH  93  95
BRANCH  93  99
ATOM     99  C   UNL     1     151.932 160.388 188.427  0.00  0.00    -0.065 C 
ATOM    100  C   UNL     1     150.984 159.439 188.403  0.00  0.00    -0.005 C 
ATOM    101  H   UNL     1     151.701 161.440 188.563  0.00  0.00    +0.059 HD
ATOM    102  H   UNL     1     151.288 158.400 188.267  0.00  0.00    +0.078 HD
BRANCH 100 103
ATOM    103  N   UNL     1     149.616 159.609 188.547  0.00  0.00    -0.284 N 
ATOM    104  C   UNL     1     148.845 160.539 187.864  0.00  0.00    +0.206 C 
ATOM    105  O   UNL     1     147.634 160.700 187.968  0.00  0.00    -0.279 OA
ATOM    106  H   UNL     1     149.424 161.171 187.177  0.00  0.00    +0.126 HD
BRANCH 103 107
ATOM    107  C   UNL     1     148.949 158.748 189.522  0.00  0.00    +0.007 C 
ATOM    108  H   UNL     1     148.133 159.266 190.037  0.00  0.00    +0.043 HD
ATOM    109  H   UNL     1     148.534 157.879 188.999  0.00  0.00    +0.043 HD
ATOM    110  H   UNL     1     149.677 158.416 190.269  0.00  0.00    +0.043 HD
ENDBRANCH 103 107
ENDBRANCH 100 103
ENDBRANCH  93  99
ENDBRANCH  91  93
BRANCH  91 111
ATOM    111  O   UNL     1     153.103 161.531 186.338  0.00  0.00    -0.379 OA
BRANCH 111 112
ATOM    112  C   UNL     1     152.969 161.040 185.012  0.00  0.00    +0.037 C 
ATOM    113  H   UNL     1     153.965 161.008 184.559  0.00  0.00    +0.052 HD
ATOM    114  H   UNL     1     152.339 161.704 184.414  0.00  0.00    +0.052 HD
ATOM    115  H   UNL     1     152.561 160.025 185.006  0.00  0.00    +0.052 HD
ENDBRANCH 111 112
ENDBRANCH  91 111
ENDBRANCH  85  91
ENDBRANCH  83  85
ENDBRANCH  80  83
ENDBRANCH  77  80
ENDBRANCH  71  77
ENDBRANCH  69  71
BRANCH  69 116
ATOM    116  O   UNL     1     155.205 166.875 184.892  0.00  0.00    -0.379 OA
BRANCH 116 117
ATOM    117  C   UNL     1     156.549 167.312 185.020  0.00  0.00    +0.037 C 
ATOM    118  H   UNL     1     157.154 166.953 184.185  0.00  0.00    +0.052 HD
ATOM    119  H   UNL     1     156.555 168.405 185.007  0.00  0.00    +0.052 HD
ATOM    120  H   UNL     1     156.977 166.974 185.967  0.00  0.00    +0.052 HD
ENDBRANCH 116 117
ENDBRANCH  69 116
ENDBRANCH  66  69
ENDBRANCH   8  66
BRANCH  31 121
ATOM    121  O   UNL     1     143.868 166.119 186.813  0.00  0.00    -0.391 OA
ATOM    122  H   UNL     1     144.721 166.543 187.015  0.00  0.00    +0.210 HD
ENDBRANCH  31 121
BRANCH  29 123
ATOM    123  O   UNL     1     141.527 167.603 189.416  0.00  0.00    -0.373 OA
BRANCH 123 124
ATOM    124  C   UNL     1     141.875 168.985 189.444  0.00  0.00    +0.037 C 
ATOM    125  H   UNL     1     142.963 169.065 189.469  0.00  0.00    +0.052 HD
ATOM    126  H   UNL     1     141.472 169.455 190.347  0.00  0.00    +0.052 HD
ATOM    127  H   UNL     1     141.508 169.506 188.556  0.00  0.00    +0.052 HD
ENDBRANCH 123 124
ENDBRANCH  29 123
BRANCH  10 128
ATOM    128  O   UNL     1     155.150 166.688 189.165  0.00  0.00    -0.379 OA
BRANCH 128 129
ATOM    129  C   UNL     1     156.380 165.978 189.200  0.00  0.00    +0.037 C 
ATOM    130  H   UNL     1     156.693 165.664 188.202  0.00  0.00    +0.052 HD
ATOM    131  H   UNL     1     156.232 165.076 189.805  0.00  0.00    +0.052 HD
ATOM    132  H   UNL     1     157.158 166.588 189.672  0.00  0.00    +0.052 HD
ENDBRANCH 128 129
ENDBRANCH  10 128
BRANCH   3 133
ATOM    133  O   UNL     1     147.434 166.629 188.346  0.00  0.00    -0.447 OA
BRANCH 133 134
ATOM    134  C   UNL     1     147.614 167.634 189.220  0.00  0.00    +0.398 C 
ATOM    135  O   UNL     1     147.529 168.829 188.987  0.00  0.00    -0.227 OA
ATOM    136  N   UNL     1     147.882 167.116 190.438  0.00  0.00    -0.295 N 
ATOM    137  H   UNL     1     147.938 166.115 190.537  0.00  0.00    +0.148 HD
ATOM    138  H   UNL     1     148.035 167.730 191.220  0.00  0.00    +0.148 HD
ENDBRANCH 133 134
ENDBRANCH   3 133
TORSDOF 29
ENDMDL
MODEL 10
REMARK VINA RESULT:      -4.8      2.284      6.379
REMARK  Name = Kabiramide C_conf1
REMARK  29 active torsions:
REMARK  status: ('A' for Active; 'I' for Inactive)
REMARK    1  A    between atoms: C_1  and  C_2
REMARK    2  A    between atoms: C_4  and  O_64
REMARK    3  A    between atoms: C_9  and  C_41
REMARK    4  A    between atoms: C_10  and  C_40
REMARK    5  A    between atoms: C_11  and  O_38
REMARK    6  A    between atoms: C_30  and  O_36
REMARK    7  A    between atoms: C_31  and  C_35
REMARK    8  A    between atoms: C_32  and  O_34
REMARK    9  A    between atoms: O_36  and  C_37
REMARK   10  A    between atoms: O_38  and  C_39
REMARK   11  A    between atoms: C_41  and  C_42
REMARK   12  A    between atoms: C_42  and  C_43
REMARK   13  A    between atoms: C_42  and  O_62
REMARK   14  A    between atoms: C_43  and  C_44
REMARK   15  A    between atoms: C_43  and  C_45
REMARK   16  A    between atoms: C_45  and  C_46
REMARK   17  A    between atoms: C_46  and  C_47
REMARK   18  A    between atoms: C_47  and  C_49
REMARK   19  A    between atoms: C_49  and  C_50
REMARK   20  A    between atoms: C_49  and  C_51
REMARK   21  A    between atoms: C_51  and  C_52
REMARK   22  A    between atoms: C_51  and  O_60
REMARK   23  A    between atoms: C_52  and  C_53
REMARK   24  A    between atoms: C_52  and  C_54
REMARK   25  A    between atoms: C_55  and  N_56
REMARK   26  A    between atoms: N_56  and  C_57
REMARK   27  A    between atoms: O_60  and  C_61
REMARK   28  A    between atoms: O_62  and  C_63
REMARK   29  A    between atoms: O_64  and  C_65
REMARK                            x       y       z     vdW  Elec       q    Type
REMARK                         _______ _______ _______ _____ _____    ______ ____
ROOT
ATOM      1  C   UNL     1     146.084 165.756 192.411  0.00  0.00    -0.038 C 
ATOM      2  C   UNL     1     145.293 165.951 191.081  0.00  0.00    -0.012 C 
ATOM      3  C   UNL     1     145.070 167.381 190.519  0.00  0.00    +0.115 C 
ATOM      4  C   UNL     1     143.832 168.094 191.064  0.00  0.00    +0.082 C 
ATOM      5  C   UNL     1     142.552 167.689 190.381  0.00  0.00    +0.311 C 
ATOM      6  O   UNL     1     141.904 166.699 190.695  0.00  0.00    -0.251 OA
ATOM      7  O   UNL     1     142.189 168.617 189.451  0.00  0.00    -0.461 OA
ATOM      8  C   UNL     1     140.812 168.612 188.998  0.00  0.00    +0.110 C 
ATOM      9  C   UNL     1     140.664 167.987 187.576  0.00  0.00    +0.020 C 
ATOM     10  C   UNL     1     141.166 168.819 186.359  0.00  0.00    +0.068 C 
ATOM     11  C   UNL     1     142.618 169.331 186.430  0.00  0.00    -0.008 C 
ATOM     12  C   UNL     1     143.707 168.318 186.247  0.00  0.00    -0.077 C 
ATOM     13  C   UNL     1     143.832 167.478 185.205  0.00  0.00    -0.003 C 
ATOM     14  C   UNL     1     144.968 166.626 185.101  0.00  0.00    +0.220 A 
ATOM     15  N   UNL     1     145.921 166.489 186.010  0.00  0.00    -0.205 NA
ATOM     16  C   UNL     1     146.847 165.651 185.451  0.00  0.00    +0.164 A 
ATOM     17  C   UNL     1     146.422 165.250 184.216  0.00  0.00    +0.125 A 
ATOM     18  O   UNL     1     145.217 165.846 183.977  0.00  0.00    -0.443 OA
ATOM     19  C   UNL     1     148.173 165.253 186.157  0.00  0.00    +0.250 A 
ATOM     20  N   UNL     1     148.472 165.687 187.365  0.00  0.00    -0.203 NA
ATOM     21  C   UNL     1     149.698 165.141 187.633  0.00  0.00    +0.164 A 
ATOM     22  C   UNL     1     150.118 164.390 186.567  0.00  0.00    +0.125 A 
ATOM     23  O   UNL     1     149.147 164.449 185.606  0.00  0.00    -0.442 OA
ATOM     24  C   UNL     1     150.461 165.366 188.970  0.00  0.00    +0.249 A 
ATOM     25  N   UNL     1     149.966 166.105 189.946  0.00  0.00    -0.210 NA
ATOM     26  C   UNL     1     150.886 166.020 190.957  0.00  0.00    +0.109 A 
ATOM     27  C   UNL     1     151.942 165.245 190.539  0.00  0.00    +0.118 A 
ATOM     28  O   UNL     1     151.684 164.818 189.271  0.00  0.00    -0.442 OA
ATOM     29  C   UNL     1     150.655 166.703 192.275  0.00  0.00    +0.108 C 
ATOM     30  C   UNL     1     149.992 165.709 193.289  0.00  0.00    +0.014 C 
ATOM     31  C   UNL     1     148.471 165.989 193.496  0.00  0.00    +0.061 C 
ATOM     32  C   UNL     1     147.629 165.879 192.212  0.00  0.00    -0.024 C 
ATOM     33  H   UNL     1     145.924 164.701 192.691  0.00  0.00    +0.030 HD
ATOM     34  H   UNL     1     144.319 165.449 191.169  0.00  0.00    +0.030 HD
ATOM     35  H   UNL     1     145.836 165.386 190.307  0.00  0.00    +0.030 HD
ATOM     36  H   UNL     1     144.983 167.293 189.427  0.00  0.00    +0.074 HD
ATOM     37  H   UNL     1     143.935 169.186 190.971  0.00  0.00    +0.041 HD
ATOM     38  H   UNL     1     143.699 167.944 192.141  0.00  0.00    +0.041 HD
ATOM     39  H   UNL     1     140.196 168.012 189.681  0.00  0.00    +0.074 HD
ATOM     40  H   UNL     1     139.575 167.892 187.428  0.00  0.00    +0.036 HD
ATOM     41  H   UNL     1     141.046 168.191 185.465  0.00  0.00    +0.060 HD
ATOM     42  H   UNL     1     142.783 170.110 185.676  0.00  0.00    +0.033 HD
ATOM     43  H   UNL     1     142.789 169.860 187.373  0.00  0.00    +0.033 HD
ATOM     44  H   UNL     1     144.485 168.339 187.016  0.00  0.00    +0.057 HD
ATOM     45  H   UNL     1     143.119 167.464 184.391  0.00  0.00    +0.067 HD
ATOM     46  H   UNL     1     146.811 164.609 183.439  0.00  0.00    +0.105 HD
ATOM     47  H   UNL     1     150.991 163.797 186.337  0.00  0.00    +0.105 HD
ATOM     48  H   UNL     1     152.872 164.922 190.979  0.00  0.00    +0.105 HD
ATOM     49  H   UNL     1     149.985 167.556 192.113  0.00  0.00    +0.067 HD
ATOM     50  H   UNL     1     150.066 164.683 192.892  0.00  0.00    +0.035 HD
ATOM     51  H   UNL     1     148.081 165.264 194.224  0.00  0.00    +0.060 HD
ATOM     52  H   UNL     1     147.944 164.989 191.650  0.00  0.00    +0.029 HD
ATOM     53  H   UNL     1     147.851 166.739 191.579  0.00  0.00    +0.029 HD
ENDROOT
BRANCH   1  54
ATOM     54  C   UNL     1     145.503 166.575 193.563  0.00  0.00    -0.062 C 
ATOM     55  H   UNL     1     145.714 167.645 193.458  0.00  0.00    +0.023 HD
ATOM     56  H   UNL     1     145.907 166.244 194.529  0.00  0.00    +0.023 HD
ATOM     57  H   UNL     1     144.418 166.435 193.626  0.00  0.00    +0.023 HD
ENDBRANCH   1  54
BRANCH  30  58
ATOM     58  C   UNL     1     150.712 165.689 194.649  0.00  0.00    -0.057 C 
ATOM     59  H   UNL     1     150.937 166.704 194.984  0.00  0.00    +0.023 HD
ATOM     60  H   UNL     1     151.651 165.129 194.602  0.00  0.00    +0.023 HD
ATOM     61  H   UNL     1     150.076 165.229 195.410  0.00  0.00    +0.023 HD
ENDBRANCH  30  58
BRANCH   9  62
ATOM     62  C   UNL     1     141.211 166.553 187.540  0.00  0.00    -0.057 C 
ATOM     63  H   UNL     1     141.183 166.158 186.516  0.00  0.00    +0.023 HD
ATOM     64  H   UNL     1     142.256 166.524 187.863  0.00  0.00    +0.023 HD
ATOM     65  H   UNL     1     140.642 165.869 188.174  0.00  0.00    +0.023 HD
ENDBRANCH   9  62
BRANCH   8  66
ATOM     66  C   UNL     1     140.292 170.062 189.083  0.00  0.00    +0.011 C 
ATOM     67  H   UNL     1     139.476 170.181 188.359  0.00  0.00    +0.033 HD
ATOM     68  H   UNL     1     141.110 170.740 188.807  0.00  0.00    +0.033 HD
BRANCH  66  69
ATOM     69  C   UNL     1     139.810 170.482 190.485  0.00  0.00    +0.064 C 
ATOM     70  H   UNL     1     140.001 169.659 191.179  0.00  0.00    +0.060 HD
BRANCH  69  71
ATOM     71  C   UNL     1     140.576 171.744 190.975  0.00  0.00    -0.017 C 
ATOM     72  H   UNL     1     140.596 172.469 190.156  0.00  0.00    +0.032 HD
BRANCH  71  73
ATOM     73  C   UNL     1     139.884 172.437 192.160  0.00  0.00    -0.060 C 
ATOM     74  H   UNL     1     140.601 172.973 192.784  0.00  0.00    +0.023 HD
ATOM     75  H   UNL     1     139.117 173.142 191.830  0.00  0.00    +0.023 HD
ATOM     76  H   UNL     1     139.399 171.691 192.798  0.00  0.00    +0.023 HD
ENDBRANCH  71  73
BRANCH  71  77
ATOM     77  C   UNL     1     142.040 171.435 191.378  0.00  0.00    -0.041 C 
ATOM     78  H   UNL     1     142.374 170.524 190.865  0.00  0.00    +0.027 HD
ATOM     79  H   UNL     1     142.066 171.211 192.453  0.00  0.00    +0.027 HD
BRANCH  77  80
ATOM     80  C   UNL     1     143.053 172.546 191.103  0.00  0.00    +0.007 C 
ATOM     81  H   UNL     1     142.830 173.394 191.762  0.00  0.00    +0.034 HD
ATOM     82  H   UNL     1     144.080 172.253 191.339  0.00  0.00    +0.034 HD
BRANCH  80  83
ATOM     83  C   UNL     1     143.011 173.023 189.662  0.00  0.00    +0.139 C 
ATOM     84  O   UNL     1     142.420 174.062 189.367  0.00  0.00    -0.297 OA
BRANCH  83  85
ATOM     85  C   UNL     1     143.658 172.137 188.606  0.00  0.00    +0.041 C 
ATOM     86  H   UNL     1     142.879 171.444 188.262  0.00  0.00    +0.040 HD
BRANCH  85  87
ATOM     87  C   UNL     1     144.732 171.236 189.213  0.00  0.00    -0.053 C 
ATOM     88  H   UNL     1     144.981 171.496 190.243  0.00  0.00    +0.024 HD
ATOM     89  H   UNL     1     144.379 170.199 189.235  0.00  0.00    +0.024 HD
ATOM     90  H   UNL     1     145.652 171.256 188.622  0.00  0.00    +0.024 HD
ENDBRANCH  85  87
BRANCH  85  91
ATOM     91  C   UNL     1     144.099 172.995 187.392  0.00  0.00    +0.074 C 
ATOM     92  H   UNL     1     143.950 174.050 187.671  0.00  0.00    +0.061 HD
BRANCH  91  93
ATOM     93  C   UNL     1     145.599 172.881 186.973  0.00  0.00    +0.003 C 
ATOM     94  H   UNL     1     146.186 172.654 187.873  0.00  0.00    +0.037 HD
BRANCH  93  95
ATOM     95  C   UNL     1     146.116 174.231 186.454  0.00  0.00    -0.057 C 
ATOM     96  H   UNL     1     146.066 174.996 187.237  0.00  0.00    +0.024 HD
ATOM     97  H   UNL     1     147.156 174.166 186.112  0.00  0.00    +0.024 HD
ATOM     98  H   UNL     1     145.504 174.579 185.613  0.00  0.00    +0.024 HD
ENDBRANCH  93  95
BRANCH  93  99
ATOM     99  C   UNL     1     145.874 171.831 185.914  0.00  0.00    -0.065 C 
ATOM    100  C   UNL     1     146.862 170.932 186.033  0.00  0.00    -0.005 C 
ATOM    101  H   UNL     1     145.212 171.861 185.055  0.00  0.00    +0.059 HD
ATOM    102  H   UNL     1     147.487 170.956 186.927  0.00  0.00    +0.078 HD
BRANCH 100 103
ATOM    103  N   UNL     1     147.201 169.928 185.139  0.00  0.00    -0.284 N 
ATOM    104  C   UNL     1     146.591 169.705 183.912  0.00  0.00    +0.206 C 
ATOM    105  O   UNL     1     146.881 168.830 183.103  0.00  0.00    -0.279 OA
ATOM    106  H   UNL     1     145.774 170.404 183.693  0.00  0.00    +0.126 HD
BRANCH 103 107
ATOM    107  C   UNL     1     148.273 169.022 185.548  0.00  0.00    +0.007 C 
ATOM    108  H   UNL     1     147.883 168.091 185.973  0.00  0.00    +0.043 HD
ATOM    109  H   UNL     1     148.882 168.778 184.671  0.00  0.00    +0.043 HD
ATOM    110  H   UNL     1     148.894 169.515 186.303  0.00  0.00    +0.043 HD
ENDBRANCH 103 107
ENDBRANCH 100 103
ENDBRANCH  93  99
ENDBRANCH  91  93
BRANCH  91 111
ATOM    111  O   UNL     1     143.281 172.721 186.241  0.00  0.00    -0.379 OA
BRANCH 111 112
ATOM    112  C   UNL     1     142.502 173.827 185.809  0.00  0.00    +0.037 C 
ATOM    113  H   UNL     1     141.761 173.463 185.092  0.00  0.00    +0.052 HD
ATOM    114  H   UNL     1     143.129 174.572 185.310  0.00  0.00    +0.052 HD
ATOM    115  H   UNL     1     141.967 174.285 186.647  0.00  0.00    +0.052 HD
ENDBRANCH 111 112
ENDBRANCH  91 111
ENDBRANCH  85  91
ENDBRANCH  83  85
ENDBRANCH  80  83
ENDBRANCH  77  80
ENDBRANCH  71  77
ENDBRANCH  69  71
BRANCH  69 116
ATOM    116  O   UNL     1     138.413 170.788 190.427  0.00  0.00    -0.379 OA
BRANCH 116 117
ATOM    117  C   UNL     1     137.581 169.772 190.965  0.00  0.00    +0.037 C 
ATOM    118  H   UNL     1     137.391 169.949 192.026  0.00  0.00    +0.052 HD
ATOM    119  H   UNL     1     136.626 169.797 190.433  0.00  0.00    +0.052 HD
ATOM    120  H   UNL     1     138.031 168.787 190.823  0.00  0.00    +0.052 HD
ENDBRANCH 116 117
ENDBRANCH  69 116
ENDBRANCH  66  69
ENDBRANCH   8  66
BRANCH  31 121
ATOM    121  O   UNL     1     148.312 167.301 194.040  0.00  0.00    -0.391 OA
ATOM    122  H   UNL     1     147.648 167.760 193.496  0.00  0.00    +0.210 HD
ENDBRANCH  31 121
BRANCH  29 123
ATOM    123  O   UNL     1     151.904 167.205 192.795  0.00  0.00    -0.373 OA
BRANCH 123 124
ATOM    124  C   UNL     1     152.139 168.555 192.405  0.00  0.00    +0.037 C 
ATOM    125  H   UNL     1     151.471 169.201 192.979  0.00  0.00    +0.052 HD
ATOM    126  H   UNL     1     151.915 168.683 191.342  0.00  0.00    +0.052 HD
ATOM    127  H   UNL     1     153.171 168.855 192.609  0.00  0.00    +0.052 HD
ENDBRANCH 123 124
ENDBRANCH  29 123
BRANCH  10 128
ATOM    128  O   UNL     1     140.255 169.931 186.210  0.00  0.00    -0.379 OA
BRANCH 128 129
ATOM    129  C   UNL     1     140.490 170.736 185.064  0.00  0.00    +0.037 C 
ATOM    130  H   UNL     1     141.557 170.837 184.853  0.00  0.00    +0.052 HD
ATOM    131  H   UNL     1     140.092 171.738 185.267  0.00  0.00    +0.052 HD
ATOM    132  H   UNL     1     139.965 170.325 184.195  0.00  0.00    +0.052 HD
ENDBRANCH 128 129
ENDBRANCH  10 128
BRANCH   3 133
ATOM    133  O   UNL     1     146.225 168.175 190.845  0.00  0.00    -0.447 OA
BRANCH 133 134
ATOM    134  C   UNL     1     147.076 168.494 189.855  0.00  0.00    +0.398 C 
ATOM    135  O   UNL     1     146.837 168.492 188.658  0.00  0.00    -0.227 OA
ATOM    136  N   UNL     1     148.261 168.857 190.391  0.00  0.00    -0.295 N 
ATOM    137  H   UNL     1     148.370 168.823 191.393  0.00  0.00    +0.148 HD
ATOM    138  H   UNL     1     149.017 169.139 189.790  0.00  0.00    +0.148 HD
ENDBRANCH 133 134
ENDBRANCH   3 133
TORSDOF 29
ENDMDL
