MODEL 1
REMARK VINA RESULT:      -6.6      0.000      0.000
REMARK  Name = Latrunculin B_conf2
REMARK  4 active torsions:
REMARK  status: ('A' for Active; 'I' for Inactive)
REMARK    1  A    between atoms: C_1  and  C_2
REMARK    2  A    between atoms: C_9  and  C_11
REMARK    3  A    between atoms: C_9  and  O_17
REMARK    4  A    between atoms: C_22  and  C_27
REMARK                            x       y       z     vdW  Elec       q    Type
REMARK                         _______ _______ _______ _____ _____    ______ ____
ROOT
ATOM      1  C   UNL     1     147.850 172.130 191.522  0.00  0.00    -0.026 C 
ATOM      2  C   UNL     1     148.438 171.295 192.679  0.00  0.00    -0.045 C 
ATOM      3  C   UNL     1     149.470 170.247 192.237  0.00  0.00    -0.026 C 
ATOM      4  C   UNL     1     148.897 169.084 191.410  0.00  0.00    +0.065 C 
ATOM      5  C   UNL     1     147.971 168.185 192.231  0.00  0.00    +0.011 C 
ATOM      6  C   UNL     1     147.493 166.997 191.392  0.00  0.00    +0.111 C 
ATOM      7  C   UNL     1     148.689 166.268 190.779  0.00  0.00    +0.040 C 
ATOM      8  C   UNL     1     149.645 167.238 190.062  0.00  0.00    +0.190 C 
ATOM      9  O   UNL     1     150.007 168.311 190.938  0.00  0.00    -0.344 OA
ATOM     10  O   UNL     1     146.646 167.454 190.314  0.00  0.00    -0.458 OA
ATOM     11  C   UNL     1     145.375 167.771 190.675  0.00  0.00    +0.332 C 
ATOM     12  O   UNL     1     144.879 167.648 191.781  0.00  0.00    -0.246 OA
ATOM     13  C   UNL     1     144.688 168.327 189.496  0.00  0.00    +0.021 C 
ATOM     14  C   UNL     1     144.148 169.563 189.461  0.00  0.00    -0.066 C 
ATOM     15  C   UNL     1     144.218 170.566 190.601  0.00  0.00    -0.028 C 
ATOM     16  C   UNL     1     144.978 171.844 190.216  0.00  0.00    -0.031 C 
ATOM     17  C   UNL     1     145.349 172.663 191.424  0.00  0.00    -0.087 C 
ATOM     18  C   UNL     1     146.570 172.801 191.970  0.00  0.00    -0.085 C 
ATOM     19  H   UNL     1     147.638 171.467 190.682  0.00  0.00    +0.034 HD
ATOM     20  H   UNL     1     148.921 171.969 193.400  0.00  0.00    +0.027 HD
ATOM     21  H   UNL     1     147.634 170.798 193.234  0.00  0.00    +0.027 HD
ATOM     22  H   UNL     1     150.276 170.730 191.671  0.00  0.00    +0.029 HD
ATOM     23  H   UNL     1     149.961 169.838 193.130  0.00  0.00    +0.029 HD
ATOM     24  H   UNL     1     148.369 169.490 190.542  0.00  0.00    +0.060 HD
ATOM     25  H   UNL     1     148.513 167.797 193.103  0.00  0.00    +0.033 HD
ATOM     26  H   UNL     1     147.116 168.759 192.597  0.00  0.00    +0.033 HD
ATOM     27  H   UNL     1     146.935 166.287 192.015  0.00  0.00    +0.074 HD
ATOM     28  H   UNL     1     148.321 165.513 190.073  0.00  0.00    +0.035 HD
ATOM     29  H   UNL     1     149.226 165.758 191.588  0.00  0.00    +0.035 HD
ATOM     30  H   UNL     1     144.643 167.661 188.642  0.00  0.00    +0.069 HD
ATOM     31  H   UNL     1     143.196 170.823 190.911  0.00  0.00    +0.031 HD
ATOM     32  H   UNL     1     144.696 170.126 191.482  0.00  0.00    +0.031 HD
ATOM     33  H   UNL     1     144.348 172.468 189.568  0.00  0.00    +0.031 HD
ATOM     34  H   UNL     1     145.860 171.596 189.617  0.00  0.00    +0.031 HD
ATOM     35  H   UNL     1     144.525 173.207 191.885  0.00  0.00    +0.057 HD
ATOM     36  H   UNL     1     146.661 173.452 192.840  0.00  0.00    +0.057 HD
ENDROOT
BRANCH   8  37
ATOM     37  C   UNL     1     150.968 166.511 189.673  0.00  0.00    +0.087 C 
ATOM     38  C   UNL     1     151.891 166.315 190.877  0.00  0.00    +0.026 C 
ATOM     39  S   UNL     1     153.530 166.074 190.126  0.00  0.00    -0.066 S 
ATOM     40  C   UNL     1     153.109 166.998 188.704  0.00  0.00    +0.272 C 
ATOM     41  O   UNL     1     153.905 167.402 187.875  0.00  0.00    -0.263 OA
ATOM     42  N   UNL     1     151.760 167.185 188.657  0.00  0.00    -0.298 N 
ATOM     43  H   UNL     1     150.719 165.520 189.267  0.00  0.00    +0.056 HD
ATOM     44  H   UNL     1     151.604 165.453 191.487  0.00  0.00    +0.040 HD
ATOM     45  H   UNL     1     151.943 167.202 191.516  0.00  0.00    +0.040 HD
ATOM     46  H   UNL     1     151.381 167.666 187.854  0.00  0.00    +0.150 HD
ENDBRANCH   8  37
BRANCH   1  47
ATOM     47  C   UNL     1     148.839 173.190 191.028  0.00  0.00    -0.059 C 
ATOM     48  H   UNL     1     148.895 174.033 191.724  0.00  0.00    +0.024 HD
ATOM     49  H   UNL     1     148.553 173.581 190.046  0.00  0.00    +0.024 HD
ATOM     50  H   UNL     1     149.848 172.771 190.940  0.00  0.00    +0.024 HD
ENDBRANCH   1  47
BRANCH  14  51
ATOM     51  C   UNL     1     143.409 170.024 188.231  0.00  0.00    -0.043 C 
ATOM     52  H   UNL     1     143.285 171.112 188.250  0.00  0.00    +0.027 HD
ATOM     53  H   UNL     1     142.410 169.580 188.161  0.00  0.00    +0.027 HD
ATOM     54  H   UNL     1     143.956 169.749 187.324  0.00  0.00    +0.027 HD
ENDBRANCH  14  51
BRANCH   8  55
ATOM     55  O   UNL     1     149.054 167.751 188.869  0.00  0.00    -0.363 OA
ATOM     56  H   UNL     1     148.631 167.007 188.404  0.00  0.00    +0.213 HD
ENDBRANCH   8  55
TORSDOF 4
ENDMDL
MODEL 2
REMARK VINA RESULT:      -6.5      3.669      6.619
REMARK  Name = Latrunculin B_conf2
REMARK  4 active torsions:
REMARK  status: ('A' for Active; 'I' for Inactive)
REMARK    1  A    between atoms: C_1  and  C_2
REMARK    2  A    between atoms: C_9  and  C_11
REMARK    3  A    between atoms: C_9  and  O_17
REMARK    4  A    between atoms: C_22  and  C_27
REMARK                            x       y       z     vdW  Elec       q    Type
REMARK                         _______ _______ _______ _____ _____    ______ ____
ROOT
ATOM      1  C   UNL     1     151.746 166.590 192.999  0.00  0.00    -0.026 C 
ATOM      2  C   UNL     1     151.289 166.046 191.629  0.00  0.00    -0.045 C 
ATOM      3  C   UNL     1     150.575 167.082 190.748  0.00  0.00    -0.026 C 
ATOM      4  C   UNL     1     149.198 167.530 191.265  0.00  0.00    +0.065 C 
ATOM      5  C   UNL     1     148.160 166.408 191.213  0.00  0.00    +0.011 C 
ATOM      6  C   UNL     1     146.789 166.922 191.656  0.00  0.00    +0.111 C 
ATOM      7  C   UNL     1     146.405 168.165 190.851  0.00  0.00    +0.040 C 
ATOM      8  C   UNL     1     147.531 169.214 190.845  0.00  0.00    +0.190 C 
ATOM      9  O   UNL     1     148.762 168.612 190.431  0.00  0.00    -0.344 OA
ATOM     10  O   UNL     1     146.818 167.287 193.054  0.00  0.00    -0.458 OA
ATOM     11  C   UNL     1     146.759 166.243 193.923  0.00  0.00    +0.332 C 
ATOM     12  O   UNL     1     146.623 165.066 193.640  0.00  0.00    -0.246 OA
ATOM     13  C   UNL     1     146.920 166.772 195.289  0.00  0.00    +0.021 C 
ATOM     14  C   UNL     1     147.908 166.392 196.125  0.00  0.00    -0.066 C 
ATOM     15  C   UNL     1     149.014 165.414 195.763  0.00  0.00    -0.028 C 
ATOM     16  C   UNL     1     150.409 166.054 195.821  0.00  0.00    -0.031 C 
ATOM     17  C   UNL     1     151.445 165.207 195.131  0.00  0.00    -0.087 C 
ATOM     18  C   UNL     1     152.028 165.441 193.942  0.00  0.00    -0.085 C 
ATOM     19  H   UNL     1     150.952 167.214 193.413  0.00  0.00    +0.034 HD
ATOM     20  H   UNL     1     152.164 165.674 191.079  0.00  0.00    +0.027 HD
ATOM     21  H   UNL     1     150.635 165.177 191.766  0.00  0.00    +0.027 HD
ATOM     22  H   UNL     1     151.214 167.962 190.611  0.00  0.00    +0.029 HD
ATOM     23  H   UNL     1     150.454 166.663 189.740  0.00  0.00    +0.029 HD
ATOM     24  H   UNL     1     149.306 167.909 192.286  0.00  0.00    +0.060 HD
ATOM     25  H   UNL     1     148.074 166.033 190.185  0.00  0.00    +0.033 HD
ATOM     26  H   UNL     1     148.475 165.575 191.847  0.00  0.00    +0.033 HD
ATOM     27  H   UNL     1     146.020 166.155 191.498  0.00  0.00    +0.074 HD
ATOM     28  H   UNL     1     145.492 168.596 191.278  0.00  0.00    +0.035 HD
ATOM     29  H   UNL     1     146.194 167.850 189.822  0.00  0.00    +0.035 HD
ATOM     30  H   UNL     1     146.174 167.501 195.583  0.00  0.00    +0.069 HD
ATOM     31  H   UNL     1     148.971 164.559 196.450  0.00  0.00    +0.031 HD
ATOM     32  H   UNL     1     148.859 165.000 194.760  0.00  0.00    +0.031 HD
ATOM     33  H   UNL     1     150.718 166.175 196.867  0.00  0.00    +0.031 HD
ATOM     34  H   UNL     1     150.381 167.066 195.404  0.00  0.00    +0.031 HD
ATOM     35  H   UNL     1     151.753 164.316 195.677  0.00  0.00    +0.057 HD
ATOM     36  H   UNL     1     152.776 164.725 193.599  0.00  0.00    +0.057 HD
ENDROOT
BRANCH   8  37
ATOM     37  C   UNL     1     147.218 170.344 189.818  0.00  0.00    +0.087 C 
ATOM     38  C   UNL     1     146.029 171.204 190.256  0.00  0.00    +0.026 C 
ATOM     39  S   UNL     1     145.463 171.972 188.707  0.00  0.00    -0.066 S 
ATOM     40  C   UNL     1     146.076 170.658 187.731  0.00  0.00    +0.272 C 
ATOM     41  O   UNL     1     145.801 170.474 186.559  0.00  0.00    -0.263 OA
ATOM     42  N   UNL     1     146.915 169.883 188.474  0.00  0.00    -0.298 N 
ATOM     43  H   UNL     1     148.099 170.997 189.733  0.00  0.00    +0.056 HD
ATOM     44  H   UNL     1     146.310 171.960 190.994  0.00  0.00    +0.040 HD
ATOM     45  H   UNL     1     145.203 170.606 190.653  0.00  0.00    +0.040 HD
ATOM     46  H   UNL     1     147.376 169.113 188.010  0.00  0.00    +0.150 HD
ENDBRANCH   8  37
BRANCH   1  47
ATOM     47  C   UNL     1     152.995 167.468 192.872  0.00  0.00    -0.059 C 
ATOM     48  H   UNL     1     152.943 168.101 191.981  0.00  0.00    +0.024 HD
ATOM     49  H   UNL     1     153.906 166.864 192.805  0.00  0.00    +0.024 HD
ATOM     50  H   UNL     1     153.096 168.130 193.739  0.00  0.00    +0.024 HD
ENDBRANCH   1  47
BRANCH  14  51
ATOM     51  C   UNL     1     147.957 166.941 197.528  0.00  0.00    -0.043 C 
ATOM     52  H   UNL     1     147.466 166.251 198.221  0.00  0.00    +0.027 HD
ATOM     53  H   UNL     1     147.448 167.908 197.609  0.00  0.00    +0.027 HD
ATOM     54  H   UNL     1     148.993 167.086 197.850  0.00  0.00    +0.027 HD
ENDBRANCH  14  51
BRANCH   8  55
ATOM     55  O   UNL     1     147.680 169.812 192.130  0.00  0.00    -0.363 OA
ATOM     56  H   UNL     1     148.624 169.777 192.367  0.00  0.00    +0.213 HD
ENDBRANCH   8  55
TORSDOF 4
ENDMDL
MODEL 3
REMARK VINA RESULT:      -6.2      3.615      7.978
REMARK  Name = Latrunculin B_conf2
REMARK  4 active torsions:
REMARK  status: ('A' for Active; 'I' for Inactive)
REMARK    1  A    between atoms: C_1  and  C_2
REMARK    2  A    between atoms: C_9  and  C_11
REMARK    3  A    between atoms: C_9  and  O_17
REMARK    4  A    between atoms: C_22  and  C_27
REMARK                            x       y       z     vdW  Elec       q    Type
REMARK                         _______ _______ _______ _____ _____    ______ ____
ROOT
ATOM      1  C   UNL     1     150.503 165.593 187.206  0.00  0.00    -0.026 C 
ATOM      2  C   UNL     1     149.496 165.283 188.334  0.00  0.00    -0.045 C 
ATOM      3  C   UNL     1     149.118 166.500 189.191  0.00  0.00    -0.026 C 
ATOM      4  C   UNL     1     150.255 167.049 190.070  0.00  0.00    +0.065 C 
ATOM      5  C   UNL     1     150.652 166.079 191.183  0.00  0.00    +0.011 C 
ATOM      6  C   UNL     1     151.725 166.701 192.081  0.00  0.00    +0.111 C 
ATOM      7  C   UNL     1     151.265 168.072 192.582  0.00  0.00    +0.040 C 
ATOM      8  C   UNL     1     150.770 168.965 191.430  0.00  0.00    +0.190 C 
ATOM      9  O   UNL     1     149.787 168.271 190.655  0.00  0.00    -0.344 OA
ATOM     10  O   UNL     1     152.953 166.884 191.341  0.00  0.00    -0.458 OA
ATOM     11  C   UNL     1     153.690 165.756 191.162  0.00  0.00    +0.332 C 
ATOM     12  O   UNL     1     153.450 164.649 191.611  0.00  0.00    -0.246 OA
ATOM     13  C   UNL     1     154.835 166.089 190.296  0.00  0.00    +0.021 C 
ATOM     14  C   UNL     1     155.074 165.489 189.113  0.00  0.00    -0.066 C 
ATOM     15  C   UNL     1     154.177 164.433 188.485  0.00  0.00    -0.028 C 
ATOM     16  C   UNL     1     153.590 164.882 187.139  0.00  0.00    -0.031 C 
ATOM     17  C   UNL     1     152.446 164.005 186.705  0.00  0.00    -0.087 C 
ATOM     18  C   UNL     1     151.136 164.310 186.714  0.00  0.00    -0.085 C 
ATOM     19  H   UNL     1     151.277 166.254 187.597  0.00  0.00    +0.034 HD
ATOM     20  H   UNL     1     148.576 164.876 187.893  0.00  0.00    +0.027 HD
ATOM     21  H   UNL     1     149.887 164.492 188.983  0.00  0.00    +0.027 HD
ATOM     22  H   UNL     1     148.735 167.305 188.552  0.00  0.00    +0.029 HD
ATOM     23  H   UNL     1     148.273 166.227 189.837  0.00  0.00    +0.029 HD
ATOM     24  H   UNL     1     151.116 167.282 189.436  0.00  0.00    +0.060 HD
ATOM     25  H   UNL     1     149.775 165.848 191.801  0.00  0.00    +0.033 HD
ATOM     26  H   UNL     1     151.016 165.141 190.754  0.00  0.00    +0.033 HD
ATOM     27  H   UNL     1     151.918 166.061 192.951  0.00  0.00    +0.074 HD
ATOM     28  H   UNL     1     152.099 168.557 193.102  0.00  0.00    +0.035 HD
ATOM     29  H   UNL     1     150.449 167.914 193.298  0.00  0.00    +0.035 HD
ATOM     30  H   UNL     1     155.487 166.863 190.684  0.00  0.00    +0.069 HD
ATOM     31  H   UNL     1     154.758 163.511 188.346  0.00  0.00    +0.031 HD
ATOM     32  H   UNL     1     153.354 164.168 189.157  0.00  0.00    +0.031 HD
ATOM     33  H   UNL     1     154.364 164.835 186.362  0.00  0.00    +0.031 HD
ATOM     34  H   UNL     1     153.288 165.934 187.189  0.00  0.00    +0.031 HD
ATOM     35  H   UNL     1     152.733 163.022 186.331  0.00  0.00    +0.057 HD
ATOM     36  H   UNL     1     150.442 163.555 186.344  0.00  0.00    +0.057 HD
ENDROOT
BRANCH   8  37
ATOM     37  C   UNL     1     150.077 170.244 191.992  0.00  0.00    +0.087 C 
ATOM     38  C   UNL     1     148.599 170.005 192.305  0.00  0.00    +0.026 C 
ATOM     39  S   UNL     1     147.886 171.679 192.310  0.00  0.00    -0.066 S 
ATOM     40  C   UNL     1     149.099 172.291 191.210  0.00  0.00    +0.272 C 
ATOM     41  O   UNL     1     149.036 173.358 190.627  0.00  0.00    -0.263 OA
ATOM     42  N   UNL     1     150.128 171.401 191.115  0.00  0.00    -0.298 N 
ATOM     43  H   UNL     1     150.582 170.536 192.924  0.00  0.00    +0.056 HD
ATOM     44  H   UNL     1     148.451 169.509 193.268  0.00  0.00    +0.040 HD
ATOM     45  H   UNL     1     148.092 169.428 191.525  0.00  0.00    +0.040 HD
ATOM     46  H   UNL     1     150.920 171.660 190.544  0.00  0.00    +0.150 HD
ENDBRANCH   8  37
BRANCH   1  47
ATOM     47  C   UNL     1     149.835 166.318 186.034  0.00  0.00    -0.059 C 
ATOM     48  H   UNL     1     150.544 166.483 185.216  0.00  0.00    +0.024 HD
ATOM     49  H   UNL     1     149.436 167.292 186.337  0.00  0.00    +0.024 HD
ATOM     50  H   UNL     1     149.004 165.727 185.632  0.00  0.00    +0.024 HD
ENDBRANCH   1  47
BRANCH  14  51
ATOM     51  C   UNL     1     156.306 165.850 188.323  0.00  0.00    -0.043 C 
ATOM     52  H   UNL     1     156.091 166.685 187.648  0.00  0.00    +0.027 HD
ATOM     53  H   UNL     1     156.662 165.014 187.710  0.00  0.00    +0.027 HD
ATOM     54  H   UNL     1     157.123 166.139 188.991  0.00  0.00    +0.027 HD
ENDBRANCH  14  51
BRANCH   8  55
ATOM     55  O   UNL     1     151.854 169.377 190.600  0.00  0.00    -0.363 OA
ATOM     56  H   UNL     1     152.667 168.967 190.947  0.00  0.00    +0.213 HD
ENDBRANCH   8  55
TORSDOF 4
ENDMDL
MODEL 4
REMARK VINA RESULT:      -6.1      2.998      4.802
REMARK  Name = Latrunculin B_conf2
REMARK  4 active torsions:
REMARK  status: ('A' for Active; 'I' for Inactive)
REMARK    1  A    between atoms: C_1  and  C_2
REMARK    2  A    between atoms: C_9  and  C_11
REMARK    3  A    between atoms: C_9  and  O_17
REMARK    4  A    between atoms: C_22  and  C_27
REMARK                            x       y       z     vdW  Elec       q    Type
REMARK                         _______ _______ _______ _____ _____    ______ ____
ROOT
ATOM      1  C   UNL     1     143.096 167.304 192.260  0.00  0.00    -0.026 C 
ATOM      2  C   UNL     1     143.899 166.307 191.398  0.00  0.00    -0.045 C 
ATOM      3  C   UNL     1     145.333 166.064 191.891  0.00  0.00    -0.026 C 
ATOM      4  C   UNL     1     146.278 167.269 191.751  0.00  0.00    +0.065 C 
ATOM      5  C   UNL     1     146.576 167.612 190.291  0.00  0.00    +0.011 C 
ATOM      6  C   UNL     1     147.583 168.761 190.203  0.00  0.00    +0.111 C 
ATOM      7  C   UNL     1     148.826 168.439 191.035  0.00  0.00    +0.040 C 
ATOM      8  C   UNL     1     148.460 167.992 192.461  0.00  0.00    +0.190 C 
ATOM      9  O   UNL     1     147.502 166.928 192.413  0.00  0.00    -0.344 OA
ATOM     10  O   UNL     1     147.001 169.978 190.721  0.00  0.00    -0.458 OA
ATOM     11  C   UNL     1     146.139 170.608 189.880  0.00  0.00    +0.332 C 
ATOM     12  O   UNL     1     145.868 170.284 188.737  0.00  0.00    -0.246 OA
ATOM     13  C   UNL     1     145.549 171.752 190.598  0.00  0.00    +0.021 C 
ATOM     14  C   UNL     1     144.225 171.902 190.802  0.00  0.00    -0.066 C 
ATOM     15  C   UNL     1     143.167 170.897 190.372  0.00  0.00    -0.028 C 
ATOM     16  C   UNL     1     142.391 170.312 191.561  0.00  0.00    -0.031 C 
ATOM     17  C   UNL     1     141.612 169.083 191.174  0.00  0.00    -0.087 C 
ATOM     18  C   UNL     1     141.898 167.807 191.484  0.00  0.00    -0.085 C 
ATOM     19  H   UNL     1     143.740 168.145 192.519  0.00  0.00    +0.034 HD
ATOM     20  H   UNL     1     143.375 165.342 191.381  0.00  0.00    +0.027 HD
ATOM     21  H   UNL     1     143.928 166.646 190.356  0.00  0.00    +0.027 HD
ATOM     22  H   UNL     1     145.320 165.734 192.937  0.00  0.00    +0.029 HD
ATOM     23  H   UNL     1     145.758 165.216 191.335  0.00  0.00    +0.029 HD
ATOM     24  H   UNL     1     145.838 168.128 192.267  0.00  0.00    +0.060 HD
ATOM     25  H   UNL     1     147.004 166.736 189.787  0.00  0.00    +0.033 HD
ATOM     26  H   UNL     1     145.652 167.878 189.771  0.00  0.00    +0.033 HD
ATOM     27  H   UNL     1     147.893 168.922 189.163  0.00  0.00    +0.074 HD
ATOM     28  H   UNL     1     149.467 169.328 191.073  0.00  0.00    +0.035 HD
ATOM     29  H   UNL     1     149.372 167.634 190.529  0.00  0.00    +0.035 HD
ATOM     30  H   UNL     1     146.267 172.480 190.956  0.00  0.00    +0.069 HD
ATOM     31  H   UNL     1     142.470 171.390 189.682  0.00  0.00    +0.031 HD
ATOM     32  H   UNL     1     143.616 170.074 189.806  0.00  0.00    +0.031 HD
ATOM     33  H   UNL     1     141.678 171.056 191.940  0.00  0.00    +0.031 HD
ATOM     34  H   UNL     1     143.071 170.107 192.394  0.00  0.00    +0.031 HD
ATOM     35  H   UNL     1     140.713 169.271 190.588  0.00  0.00    +0.057 HD
ATOM     36  H   UNL     1     141.210 167.037 191.133  0.00  0.00    +0.057 HD
ENDROOT
BRANCH   8  37
ATOM     37  C   UNL     1     149.716 167.431 193.195  0.00  0.00    +0.087 C 
ATOM     38  C   UNL     1     150.772 166.917 192.215  0.00  0.00    +0.026 C 
ATOM     39  S   UNL     1     151.777 165.784 193.222  0.00  0.00    -0.066 S 
ATOM     40  C   UNL     1     150.450 165.434 194.306  0.00  0.00    +0.272 C 
ATOM     41  O   UNL     1     150.433 164.525 195.114  0.00  0.00    -0.263 OA
ATOM     42  N   UNL     1     149.449 166.341 194.117  0.00  0.00    -0.298 N 
ATOM     43  H   UNL     1     150.166 168.240 193.790  0.00  0.00    +0.056 HD
ATOM     44  H   UNL     1     151.383 167.723 191.798  0.00  0.00    +0.040 HD
ATOM     45  H   UNL     1     150.337 166.338 191.394  0.00  0.00    +0.040 HD
ATOM     46  H   UNL     1     148.641 166.277 194.719  0.00  0.00    +0.150 HD
ENDBRANCH   8  37
BRANCH   1  47
ATOM     47  C   UNL     1     142.627 166.668 193.572  0.00  0.00    -0.059 C 
ATOM     48  H   UNL     1     143.402 166.023 193.997  0.00  0.00    +0.024 HD
ATOM     49  H   UNL     1     141.725 166.063 193.427  0.00  0.00    +0.024 HD
ATOM     50  H   UNL     1     142.397 167.438 194.318  0.00  0.00    +0.024 HD
ENDBRANCH   1  47
BRANCH  14  51
ATOM     51  C   UNL     1     143.707 173.137 191.493  0.00  0.00    -0.043 C 
ATOM     52  H   UNL     1     143.194 172.864 192.421  0.00  0.00    +0.027 HD
ATOM     53  H   UNL     1     142.992 173.687 190.872  0.00  0.00    +0.027 HD
ATOM     54  H   UNL     1     144.528 173.820 191.733  0.00  0.00    +0.027 HD
ENDBRANCH  14  51
BRANCH   8  55
ATOM     55  O   UNL     1     147.951 169.083 193.225  0.00  0.00    -0.363 OA
ATOM     56  H   UNL     1     147.446 169.657 192.622  0.00  0.00    +0.213 HD
ENDBRANCH   8  55
TORSDOF 4
ENDMDL
MODEL 5
REMARK VINA RESULT:      -6.1      3.363      7.571
REMARK  Name = Latrunculin B_conf2
REMARK  4 active torsions:
REMARK  status: ('A' for Active; 'I' for Inactive)
REMARK    1  A    between atoms: C_1  and  C_2
REMARK    2  A    between atoms: C_9  and  C_11
REMARK    3  A    between atoms: C_9  and  O_17
REMARK    4  A    between atoms: C_22  and  C_27
REMARK                            x       y       z     vdW  Elec       q    Type
REMARK                         _______ _______ _______ _____ _____    ______ ____
ROOT
ATOM      1  C   UNL     1     149.959 165.867 188.002  0.00  0.00    -0.026 C 
ATOM      2  C   UNL     1     148.550 165.827 188.629  0.00  0.00    -0.045 C 
ATOM      3  C   UNL     1     148.003 167.203 189.036  0.00  0.00    -0.026 C 
ATOM      4  C   UNL     1     148.737 167.867 190.213  0.00  0.00    +0.065 C 
ATOM      5  C   UNL     1     148.524 167.119 191.530  0.00  0.00    +0.011 C 
ATOM      6  C   UNL     1     149.201 167.861 192.686  0.00  0.00    +0.111 C 
ATOM      7  C   UNL     1     148.745 169.321 192.716  0.00  0.00    +0.040 C 
ATOM      8  C   UNL     1     148.877 169.990 191.336  0.00  0.00    +0.190 C 
ATOM      9  O   UNL     1     148.221 169.198 190.339  0.00  0.00    -0.344 OA
ATOM     10  O   UNL     1     150.636 167.844 192.519  0.00  0.00    -0.458 OA
ATOM     11  C   UNL     1     151.241 166.674 192.854  0.00  0.00    +0.332 C 
ATOM     12  O   UNL     1     150.706 165.687 193.330  0.00  0.00    -0.246 OA
ATOM     13  C   UNL     1     152.671 166.782 192.516  0.00  0.00    +0.021 C 
ATOM     14  C   UNL     1     153.300 165.951 191.659  0.00  0.00    -0.066 C 
ATOM     15  C   UNL     1     152.619 164.831 190.889  0.00  0.00    -0.028 C 
ATOM     16  C   UNL     1     152.692 165.030 189.369  0.00  0.00    -0.031 C 
ATOM     17  C   UNL     1     151.731 164.133 188.637  0.00  0.00    -0.087 C 
ATOM     18  C   UNL     1     150.579 164.487 188.039  0.00  0.00    -0.085 C 
ATOM     19  H   UNL     1     150.579 166.560 188.573  0.00  0.00    +0.034 HD
ATOM     20  H   UNL     1     147.849 165.379 187.911  0.00  0.00    +0.027 HD
ATOM     21  H   UNL     1     148.542 165.163 189.501  0.00  0.00    +0.027 HD
ATOM     22  H   UNL     1     148.015 167.881 188.174  0.00  0.00    +0.029 HD
ATOM     23  H   UNL     1     146.941 167.097 189.296  0.00  0.00    +0.029 HD
ATOM     24  H   UNL     1     149.803 167.935 189.977  0.00  0.00    +0.060 HD
ATOM     25  H   UNL     1     147.450 167.050 191.745  0.00  0.00    +0.033 HD
ATOM     26  H   UNL     1     148.915 166.101 191.454  0.00  0.00    +0.033 HD
ATOM     27  H   UNL     1     148.942 167.397 193.645  0.00  0.00    +0.074 HD
ATOM     28  H   UNL     1     149.344 169.865 193.455  0.00  0.00    +0.035 HD
ATOM     29  H   UNL     1     147.695 169.341 193.032  0.00  0.00    +0.035 HD
ATOM     30  H   UNL     1     153.194 167.590 193.014  0.00  0.00    +0.069 HD
ATOM     31  H   UNL     1     153.090 163.877 191.160  0.00  0.00    +0.031 HD
ATOM     32  H   UNL     1     151.567 164.738 191.181  0.00  0.00    +0.031 HD
ATOM     33  H   UNL     1     153.705 164.799 189.013  0.00  0.00    +0.031 HD
ATOM     34  H   UNL     1     152.526 166.082 189.115  0.00  0.00    +0.031 HD
ATOM     35  H   UNL     1     152.025 163.085 188.584  0.00  0.00    +0.057 HD
ATOM     36  H   UNL     1     150.011 163.704 187.537  0.00  0.00    +0.057 HD
ENDROOT
BRANCH   8  37
ATOM     37  C   UNL     1     148.174 171.382 191.336  0.00  0.00    +0.087 C 
ATOM     38  C   UNL     1     148.244 172.060 192.705  0.00  0.00    +0.026 C 
ATOM     39  S   UNL     1     146.885 173.269 192.655  0.00  0.00    -0.066 S 
ATOM     40  C   UNL     1     145.972 172.323 191.504  0.00  0.00    +0.272 C 
ATOM     41  O   UNL     1     144.803 172.509 191.220  0.00  0.00    -0.263 OA
ATOM     42  N   UNL     1     146.770 171.358 190.964  0.00  0.00    -0.298 N 
ATOM     43  H   UNL     1     148.679 172.031 190.606  0.00  0.00    +0.056 HD
ATOM     44  H   UNL     1     149.206 172.552 192.879  0.00  0.00    +0.040 HD
ATOM     45  H   UNL     1     148.045 171.367 193.528  0.00  0.00    +0.040 HD
ATOM     46  H   UNL     1     146.372 170.770 190.244  0.00  0.00    +0.150 HD
ENDBRANCH   8  37
BRANCH   1  47
ATOM     47  C   UNL     1     149.923 166.373 186.557  0.00  0.00    -0.059 C 
ATOM     48  H   UNL     1     149.979 165.544 185.846  0.00  0.00    +0.024 HD
ATOM     49  H   UNL     1     150.755 167.055 186.348  0.00  0.00    +0.024 HD
ATOM     50  H   UNL     1     148.990 166.914 186.357  0.00  0.00    +0.024 HD
ENDBRANCH   1  47
BRANCH  14  51
ATOM     51  C   UNL     1     154.781 166.099 191.421  0.00  0.00    -0.043 C 
ATOM     52  H   UNL     1     154.965 166.477 190.410  0.00  0.00    +0.027 HD
ATOM     53  H   UNL     1     155.310 165.145 191.518  0.00  0.00    +0.027 HD
ATOM     54  H   UNL     1     155.221 166.794 192.142  0.00  0.00    +0.027 HD
ENDBRANCH  14  51
BRANCH   8  55
ATOM     55  O   UNL     1     150.246 170.186 190.990  0.00  0.00    -0.363 OA
ATOM     56  H   UNL     1     150.777 170.055 191.796  0.00  0.00    +0.213 HD
ENDBRANCH   8  55
TORSDOF 4
ENDMDL
MODEL 6
REMARK VINA RESULT:      -6.1      3.043      4.383
REMARK  Name = Latrunculin B_conf2
REMARK  4 active torsions:
REMARK  status: ('A' for Active; 'I' for Inactive)
REMARK    1  A    between atoms: C_1  and  C_2
REMARK    2  A    between atoms: C_9  and  C_11
REMARK    3  A    between atoms: C_9  and  O_17
REMARK    4  A    between atoms: C_22  and  C_27
REMARK                            x       y       z     vdW  Elec       q    Type
REMARK                         _______ _______ _______ _____ _____    ______ ____
ROOT
ATOM      1  C   UNL     1     149.931 169.282 191.881  0.00  0.00    -0.026 C 
ATOM      2  C   UNL     1     150.444 168.006 192.582  0.00  0.00    -0.045 C 
ATOM      3  C   UNL     1     151.842 167.560 192.131  0.00  0.00    -0.026 C 
ATOM      4  C   UNL     1     151.922 167.050 190.682  0.00  0.00    +0.065 C 
ATOM      5  C   UNL     1     151.171 165.733 190.484  0.00  0.00    +0.011 C 
ATOM      6  C   UNL     1     151.348 165.223 189.052  0.00  0.00    +0.111 C 
ATOM      7  C   UNL     1     152.834 165.152 188.697  0.00  0.00    +0.040 C 
ATOM      8  C   UNL     1     153.563 166.468 189.022  0.00  0.00    +0.190 C 
ATOM      9  O   UNL     1     153.309 166.850 190.378  0.00  0.00    -0.344 OA
ATOM     10  O   UNL     1     150.706 166.119 188.117  0.00  0.00    -0.458 OA
ATOM     11  C   UNL     1     149.354 166.000 188.042  0.00  0.00    +0.332 C 
ATOM     12  O   UNL     1     148.660 165.187 188.626  0.00  0.00    -0.246 OA
ATOM     13  C   UNL     1     148.851 167.055 187.144  0.00  0.00    +0.021 C 
ATOM     14  C   UNL     1     147.959 167.994 187.523  0.00  0.00    -0.066 C 
ATOM     15  C   UNL     1     147.395 168.129 188.928  0.00  0.00    -0.028 C 
ATOM     16  C   UNL     1     147.758 169.469 189.584  0.00  0.00    -0.031 C 
ATOM     17  C   UNL     1     147.511 169.454 191.068  0.00  0.00    -0.087 C 
ATOM     18  C   UNL     1     148.431 169.393 192.047  0.00  0.00    -0.085 C 
ATOM     19  H   UNL     1     150.176 169.224 190.820  0.00  0.00    +0.034 HD
ATOM     20  H   UNL     1     150.472 168.177 193.667  0.00  0.00    +0.027 HD
ATOM     21  H   UNL     1     149.737 167.182 192.432  0.00  0.00    +0.027 HD
ATOM     22  H   UNL     1     152.559 168.380 192.266  0.00  0.00    +0.029 HD
ATOM     23  H   UNL     1     152.193 166.767 192.805  0.00  0.00    +0.029 HD
ATOM     24  H   UNL     1     151.533 167.821 190.010  0.00  0.00    +0.060 HD
ATOM     25  H   UNL     1     151.566 164.976 191.173  0.00  0.00    +0.033 HD
ATOM     26  H   UNL     1     150.109 165.868 190.709  0.00  0.00    +0.033 HD
ATOM     27  H   UNL     1     150.918 164.219 188.945  0.00  0.00    +0.074 HD
ATOM     28  H   UNL     1     152.933 164.922 187.629  0.00  0.00    +0.035 HD
ATOM     29  H   UNL     1     153.282 164.335 189.274  0.00  0.00    +0.035 HD
ATOM     30  H   UNL     1     149.251 167.023 186.138  0.00  0.00    +0.069 HD
ATOM     31  H   UNL     1     146.302 168.023 188.883  0.00  0.00    +0.031 HD
ATOM     32  H   UNL     1     147.747 167.316 189.572  0.00  0.00    +0.031 HD
ATOM     33  H   UNL     1     147.147 170.271 189.149  0.00  0.00    +0.031 HD
ATOM     34  H   UNL     1     148.795 169.735 189.356  0.00  0.00    +0.031 HD
ATOM     35  H   UNL     1     146.463 169.512 191.364  0.00  0.00    +0.057 HD
ATOM     36  H   UNL     1     148.072 169.409 193.077  0.00  0.00    +0.057 HD
ENDROOT
BRANCH   8  37
ATOM     37  C   UNL     1     155.106 166.283 188.891  0.00  0.00    +0.087 C 
ATOM     38  C   UNL     1     155.496 165.653 187.552  0.00  0.00    +0.026 C 
ATOM     39  S   UNL     1     157.150 164.965 187.869  0.00  0.00    -0.066 S 
ATOM     40  C   UNL     1     156.834 164.766 189.576  0.00  0.00    +0.272 C 
ATOM     41  O   UNL     1     157.522 164.115 190.341  0.00  0.00    -0.263 OA
ATOM     42  N   UNL     1     155.713 165.460 189.922  0.00  0.00    -0.298 N 
ATOM     43  H   UNL     1     155.586 167.271 188.957  0.00  0.00    +0.056 HD
ATOM     44  H   UNL     1     155.520 166.383 186.738  0.00  0.00    +0.040 HD
ATOM     45  H   UNL     1     154.838 164.825 187.270  0.00  0.00    +0.040 HD
ATOM     46  H   UNL     1     155.448 165.466 190.897  0.00  0.00    +0.150 HD
ENDBRANCH   8  37
BRANCH   1  47
ATOM     47  C   UNL     1     150.603 170.541 192.436  0.00  0.00    -0.059 C 
ATOM     48  H   UNL     1     151.085 171.115 191.638  0.00  0.00    +0.024 HD
ATOM     49  H   UNL     1     151.366 170.295 193.183  0.00  0.00    +0.024 HD
ATOM     50  H   UNL     1     149.867 171.198 192.913  0.00  0.00    +0.024 HD
ENDBRANCH   1  47
BRANCH  14  51
ATOM     51  C   UNL     1     147.452 168.996 186.518  0.00  0.00    -0.043 C 
ATOM     52  H   UNL     1     146.415 168.772 186.250  0.00  0.00    +0.027 HD
ATOM     53  H   UNL     1     148.041 168.986 185.594  0.00  0.00    +0.027 HD
ATOM     54  H   UNL     1     147.498 170.011 186.926  0.00  0.00    +0.027 HD
ENDBRANCH  14  51
BRANCH   8  55
ATOM     55  O   UNL     1     153.165 167.508 188.131  0.00  0.00    -0.363 OA
ATOM     56  H   UNL     1     153.336 168.359 188.573  0.00  0.00    +0.213 HD
ENDBRANCH   8  55
TORSDOF 4
ENDMDL
MODEL 7
REMARK VINA RESULT:      -5.9      4.834      7.886
REMARK  Name = Latrunculin B_conf2
REMARK  4 active torsions:
REMARK  status: ('A' for Active; 'I' for Inactive)
REMARK    1  A    between atoms: C_1  and  C_2
REMARK    2  A    between atoms: C_9  and  C_11
REMARK    3  A    between atoms: C_9  and  O_17
REMARK    4  A    between atoms: C_22  and  C_27
REMARK                            x       y       z     vdW  Elec       q    Type
REMARK                         _______ _______ _______ _____ _____    ______ ____
ROOT
ATOM      1  C   UNL     1     147.984 169.839 191.417  0.00  0.00    -0.026 C 
ATOM      2  C   UNL     1     147.535 169.769 189.942  0.00  0.00    -0.045 C 
ATOM      3  C   UNL     1     146.090 170.230 189.702  0.00  0.00    -0.026 C 
ATOM      4  C   UNL     1     145.011 169.307 190.293  0.00  0.00    +0.065 C 
ATOM      5  C   UNL     1     144.954 167.950 189.591  0.00  0.00    +0.011 C 
ATOM      6  C   UNL     1     143.813 167.100 190.155  0.00  0.00    +0.111 C 
ATOM      7  C   UNL     1     142.499 167.881 190.109  0.00  0.00    +0.040 C 
ATOM      8  C   UNL     1     142.645 169.283 190.729  0.00  0.00    +0.190 C 
ATOM      9  O   UNL     1     143.751 169.971 190.135  0.00  0.00    -0.344 OA
ATOM     10  O   UNL     1     144.080 166.754 191.532  0.00  0.00    -0.458 OA
ATOM     11  C   UNL     1     144.978 165.749 191.710  0.00  0.00    +0.332 C 
ATOM     12  O   UNL     1     145.516 165.090 190.838  0.00  0.00    -0.246 OA
ATOM     13  C   UNL     1     145.225 165.604 193.155  0.00  0.00    +0.021 C 
ATOM     14  C   UNL     1     146.442 165.733 193.721  0.00  0.00    -0.066 C 
ATOM     15  C   UNL     1     147.710 166.095 192.964  0.00  0.00    -0.028 C 
ATOM     16  C   UNL     1     148.322 167.422 193.437  0.00  0.00    -0.031 C 
ATOM     17  C   UNL     1     149.347 167.945 192.468  0.00  0.00    -0.087 C 
ATOM     18  C   UNL     1     149.214 168.982 191.623  0.00  0.00    -0.085 C 
ATOM     19  H   UNL     1     147.175 169.470 192.049  0.00  0.00    +0.034 HD
ATOM     20  H   UNL     1     148.201 170.396 189.333  0.00  0.00    +0.027 HD
ATOM     21  H   UNL     1     147.657 168.750 189.558  0.00  0.00    +0.027 HD
ATOM     22  H   UNL     1     145.951 171.245 190.093  0.00  0.00    +0.029 HD
ATOM     23  H   UNL     1     145.924 170.320 188.620  0.00  0.00    +0.029 HD
ATOM     24  H   UNL     1     145.197 169.180 191.364  0.00  0.00    +0.060 HD
ATOM     25  H   UNL     1     144.779 168.098 188.518  0.00  0.00    +0.033 HD
ATOM     26  H   UNL     1     145.907 167.427 189.705  0.00  0.00    +0.033 HD
ATOM     27  H   UNL     1     143.691 166.181 189.568  0.00  0.00    +0.074 HD
ATOM     28  H   UNL     1     141.729 167.313 190.644  0.00  0.00    +0.035 HD
ATOM     29  H   UNL     1     142.198 167.977 189.059  0.00  0.00    +0.035 HD
ATOM     30  H   UNL     1     144.344 165.380 193.745  0.00  0.00    +0.069 HD
ATOM     31  H   UNL     1     148.442 165.285 193.089  0.00  0.00    +0.031 HD
ATOM     32  H   UNL     1     147.519 166.161 191.888  0.00  0.00    +0.031 HD
ATOM     33  H   UNL     1     148.818 167.276 194.406  0.00  0.00    +0.031 HD
ATOM     34  H   UNL     1     147.533 168.159 193.620  0.00  0.00    +0.031 HD
ATOM     35  H   UNL     1     150.302 167.421 192.477  0.00  0.00    +0.057 HD
ATOM     36  H   UNL     1     150.072 169.236 190.999  0.00  0.00    +0.057 HD
ENDROOT
BRANCH   8  37
ATOM     37  C   UNL     1     141.375 170.141 190.440  0.00  0.00    +0.087 C 
ATOM     38  C   UNL     1     141.209 171.278 191.451  0.00  0.00    +0.026 C 
ATOM     39  S   UNL     1     139.443 171.699 191.335  0.00  0.00    -0.066 S 
ATOM     40  C   UNL     1     139.005 170.089 190.815  0.00  0.00    +0.272 C 
ATOM     41  O   UNL     1     137.869 169.654 190.776  0.00  0.00    -0.263 OA
ATOM     42  N   UNL     1     140.124 169.402 190.446  0.00  0.00    -0.298 N 
ATOM     43  H   UNL     1     141.471 170.585 189.439  0.00  0.00    +0.056 HD
ATOM     44  H   UNL     1     141.838 172.140 191.216  0.00  0.00    +0.040 HD
ATOM     45  H   UNL     1     141.410 170.958 192.479  0.00  0.00    +0.040 HD
ATOM     46  H   UNL     1     140.002 168.470 190.078  0.00  0.00    +0.150 HD
ENDBRANCH   8  37
BRANCH   1  47
ATOM     47  C   UNL     1     148.281 171.277 191.851  0.00  0.00    -0.059 C 
ATOM     48  H   UNL     1     147.389 171.905 191.775  0.00  0.00    +0.024 HD
ATOM     49  H   UNL     1     149.066 171.729 191.235  0.00  0.00    +0.024 HD
ATOM     50  H   UNL     1     148.616 171.308 192.894  0.00  0.00    +0.024 HD
ENDBRANCH   1  47
BRANCH  14  51
ATOM     51  C   UNL     1     146.610 165.505 195.202  0.00  0.00    -0.043 C 
ATOM     52  H   UNL     1     146.691 164.434 195.413  0.00  0.00    +0.027 HD
ATOM     53  H   UNL     1     145.761 165.891 195.776  0.00  0.00    +0.027 HD
ATOM     54  H   UNL     1     147.511 166.005 195.570  0.00  0.00    +0.027 HD
ENDBRANCH  14  51
BRANCH   8  55
ATOM     55  O   UNL     1     142.813 169.202 192.142  0.00  0.00    -0.363 OA
ATOM     56  H   UNL     1     142.631 170.084 192.514  0.00  0.00    +0.213 HD
ENDBRANCH   8  55
TORSDOF 4
ENDMDL
MODEL 8
REMARK VINA RESULT:      -5.9      3.800      7.055
REMARK  Name = Latrunculin B_conf2
REMARK  4 active torsions:
REMARK  status: ('A' for Active; 'I' for Inactive)
REMARK    1  A    between atoms: C_1  and  C_2
REMARK    2  A    between atoms: C_9  and  C_11
REMARK    3  A    between atoms: C_9  and  O_17
REMARK    4  A    between atoms: C_22  and  C_27
REMARK                            x       y       z     vdW  Elec       q    Type
REMARK                         _______ _______ _______ _____ _____    ______ ____
ROOT
ATOM      1  C   UNL     1     148.701 171.482 192.096  0.00  0.00    -0.026 C 
ATOM      2  C   UNL     1     148.086 171.989 190.775  0.00  0.00    -0.045 C 
ATOM      3  C   UNL     1     146.584 171.706 190.630  0.00  0.00    -0.026 C 
ATOM      4  C   UNL     1     146.219 170.220 190.474  0.00  0.00    +0.065 C 
ATOM      5  C   UNL     1     146.707 169.636 189.148  0.00  0.00    +0.011 C 
ATOM      6  C   UNL     1     146.248 168.182 189.000  0.00  0.00    +0.111 C 
ATOM      7  C   UNL     1     144.736 168.081 189.208  0.00  0.00    +0.040 C 
ATOM      8  C   UNL     1     144.289 168.785 190.502  0.00  0.00    +0.190 C 
ATOM      9  O   UNL     1     144.790 170.125 190.533  0.00  0.00    -0.344 OA
ATOM     10  O   UNL     1     146.893 167.350 189.990  0.00  0.00    -0.458 OA
ATOM     11  C   UNL     1     148.183 167.021 189.714  0.00  0.00    +0.332 C 
ATOM     12  O   UNL     1     148.807 167.302 188.706  0.00  0.00    -0.246 OA
ATOM     13  C   UNL     1     148.724 166.281 190.867  0.00  0.00    +0.021 C 
ATOM     14  C   UNL     1     149.803 166.681 191.571  0.00  0.00    -0.066 C 
ATOM     15  C   UNL     1     150.573 167.966 191.311  0.00  0.00    -0.028 C 
ATOM     16  C   UNL     1     150.533 168.930 192.505  0.00  0.00    -0.031 C 
ATOM     17  C   UNL     1     150.979 170.316 192.125  0.00  0.00    -0.087 C 
ATOM     18  C   UNL     1     150.207 171.406 191.968  0.00  0.00    -0.085 C 
ATOM     19  H   UNL     1     148.304 170.489 192.311  0.00  0.00    +0.034 HD
ATOM     20  H   UNL     1     148.239 173.075 190.700  0.00  0.00    +0.027 HD
ATOM     21  H   UNL     1     148.619 171.558 189.919  0.00  0.00    +0.027 HD
ATOM     22  H   UNL     1     146.040 172.124 191.486  0.00  0.00    +0.029 HD
ATOM     23  H   UNL     1     146.204 172.257 189.759  0.00  0.00    +0.029 HD
ATOM     24  H   UNL     1     146.633 169.660 191.318  0.00  0.00    +0.060 HD
ATOM     25  H   UNL     1     146.291 170.216 188.314  0.00  0.00    +0.033 HD
ATOM     26  H   UNL     1     147.796 169.696 189.087  0.00  0.00    +0.033 HD
ATOM     27  H   UNL     1     146.487 167.804 187.998  0.00  0.00    +0.074 HD
ATOM     28  H   UNL     1     144.453 167.022 189.239  0.00  0.00    +0.035 HD
ATOM     29  H   UNL     1     144.244 168.551 188.348  0.00  0.00    +0.035 HD
ATOM     30  H   UNL     1     148.187 165.373 191.115  0.00  0.00    +0.069 HD
ATOM     31  H   UNL     1     151.615 167.713 191.074  0.00  0.00    +0.031 HD
ATOM     32  H   UNL     1     150.184 168.485 190.428  0.00  0.00    +0.031 HD
ATOM     33  H   UNL     1     151.202 168.567 193.297  0.00  0.00    +0.031 HD
ATOM     34  H   UNL     1     149.533 168.942 192.950  0.00  0.00    +0.031 HD
ATOM     35  H   UNL     1     152.052 170.432 191.977  0.00  0.00    +0.057 HD
ATOM     36  H   UNL     1     150.704 172.340 191.705  0.00  0.00    +0.057 HD
ENDROOT
BRANCH   8  37
ATOM     37  C   UNL     1     142.734 168.886 190.557  0.00  0.00    +0.087 C 
ATOM     38  C   UNL     1     142.118 169.025 189.163  0.00  0.00    +0.026 C 
ATOM     39  S   UNL     1     140.481 169.749 189.488  0.00  0.00    -0.066 S 
ATOM     40  C   UNL     1     141.017 170.513 190.965  0.00  0.00    +0.272 C 
ATOM     41  O   UNL     1     140.399 171.370 191.570  0.00  0.00    -0.263 OA
ATOM     42  N   UNL     1     142.221 169.996 191.342  0.00  0.00    -0.298 N 
ATOM     43  H   UNL     1     142.337 167.969 191.016  0.00  0.00    +0.056 HD
ATOM     44  H   UNL     1     142.032 168.064 188.647  0.00  0.00    +0.040 HD
ATOM     45  H   UNL     1     142.672 169.723 188.527  0.00  0.00    +0.040 HD
ATOM     46  H   UNL     1     142.619 170.321 192.212  0.00  0.00    +0.150 HD
ENDBRANCH   8  37
BRANCH   1  47
ATOM     47  C   UNL     1     148.332 172.385 193.276  0.00  0.00    -0.059 C 
ATOM     48  H   UNL     1     149.224 172.704 193.824  0.00  0.00    +0.024 HD
ATOM     49  H   UNL     1     147.667 171.874 193.982  0.00  0.00    +0.024 HD
ATOM     50  H   UNL     1     147.820 173.290 192.929  0.00  0.00    +0.024 HD
ENDBRANCH   1  47
BRANCH  14  51
ATOM     51  C   UNL     1     150.324 165.826 192.697  0.00  0.00    -0.043 C 
ATOM     52  H   UNL     1     151.291 165.389 192.425  0.00  0.00    +0.027 HD
ATOM     53  H   UNL     1     149.645 165.000 192.935  0.00  0.00    +0.027 HD
ATOM     54  H   UNL     1     150.452 166.420 193.607  0.00  0.00    +0.027 HD
ENDBRANCH  14  51
BRANCH   8  55
ATOM     55  O   UNL     1     144.726 168.066 191.653  0.00  0.00    -0.363 OA
ATOM     56  H   UNL     1     144.556 168.623 192.434  0.00  0.00    +0.213 HD
ENDBRANCH   8  55
TORSDOF 4
ENDMDL
MODEL 9
REMARK VINA RESULT:      -5.8      8.131     12.813
REMARK  Name = Latrunculin B_conf2
REMARK  4 active torsions:
REMARK  status: ('A' for Active; 'I' for Inactive)
REMARK    1  A    between atoms: C_1  and  C_2
REMARK    2  A    between atoms: C_9  and  C_11
REMARK    3  A    between atoms: C_9  and  O_17
REMARK    4  A    between atoms: C_22  and  C_27
REMARK                            x       y       z     vdW  Elec       q    Type
REMARK                         _______ _______ _______ _____ _____    ______ ____
ROOT
ATOM      1  C   UNL     1     155.862 172.773 182.302  0.00  0.00    -0.026 C 
ATOM      2  C   UNL     1     155.413 171.549 181.475  0.00  0.00    -0.045 C 
ATOM      3  C   UNL     1     155.082 170.308 182.317  0.00  0.00    -0.026 C 
ATOM      4  C   UNL     1     156.290 169.659 183.012  0.00  0.00    +0.065 C 
ATOM      5  C   UNL     1     157.266 169.027 182.019  0.00  0.00    +0.011 C 
ATOM      6  C   UNL     1     158.406 168.322 182.759  0.00  0.00    +0.111 C 
ATOM      7  C   UNL     1     157.840 167.341 183.787  0.00  0.00    +0.040 C 
ATOM      8  C   UNL     1     156.780 168.002 184.686  0.00  0.00    +0.190 C 
ATOM      9  O   UNL     1     155.782 168.640 183.883  0.00  0.00    -0.344 OA
ATOM     10  O   UNL     1     159.220 169.287 183.461  0.00  0.00    -0.458 OA
ATOM     11  C   UNL     1     160.092 169.980 182.683  0.00  0.00    +0.332 C 
ATOM     12  O   UNL     1     160.290 169.821 181.491  0.00  0.00    -0.246 OA
ATOM     13  C   UNL     1     160.752 170.994 183.523  0.00  0.00    +0.021 C 
ATOM     14  C   UNL     1     160.699 172.319 183.274  0.00  0.00    -0.066 C 
ATOM     15  C   UNL     1     159.915 172.950 182.134  0.00  0.00    -0.028 C 
ATOM     16  C   UNL     1     158.808 173.892 182.630  0.00  0.00    -0.031 C 
ATOM     17  C   UNL     1     157.825 174.227 181.541  0.00  0.00    -0.087 C 
ATOM     18  C   UNL     1     156.568 173.768 181.408  0.00  0.00    -0.085 C 
ATOM     19  H   UNL     1     156.545 172.438 183.084  0.00  0.00    +0.034 HD
ATOM     20  H   UNL     1     154.521 171.817 180.893  0.00  0.00    +0.027 HD
ATOM     21  H   UNL     1     156.180 171.290 180.736  0.00  0.00    +0.027 HD
ATOM     22  H   UNL     1     154.323 170.556 183.068  0.00  0.00    +0.029 HD
ATOM     23  H   UNL     1     154.604 169.561 181.669  0.00  0.00    +0.029 HD
ATOM     24  H   UNL     1     156.796 170.411 183.625  0.00  0.00    +0.060 HD
ATOM     25  H   UNL     1     156.739 168.285 181.406  0.00  0.00    +0.033 HD
ATOM     26  H   UNL     1     157.667 169.791 181.347  0.00  0.00    +0.033 HD
ATOM     27  H   UNL     1     159.034 167.762 182.054  0.00  0.00    +0.074 HD
ATOM     28  H   UNL     1     158.664 166.954 184.399  0.00  0.00    +0.035 HD
ATOM     29  H   UNL     1     157.386 166.504 183.243  0.00  0.00    +0.035 HD
ATOM     30  H   UNL     1     161.296 170.596 184.371  0.00  0.00    +0.069 HD
ATOM     31  H   UNL     1     160.610 173.504 181.490  0.00  0.00    +0.031 HD
ATOM     32  H   UNL     1     159.463 172.183 181.497  0.00  0.00    +0.031 HD
ATOM     33  H   UNL     1     159.251 174.832 182.983  0.00  0.00    +0.031 HD
ATOM     34  H   UNL     1     158.304 173.460 183.501  0.00  0.00    +0.031 HD
ATOM     35  H   UNL     1     158.187 174.932 180.792  0.00  0.00    +0.057 HD
ATOM     36  H   UNL     1     155.986 174.133 180.560  0.00  0.00    +0.057 HD
ENDROOT
BRANCH   8  37
ATOM     37  C   UNL     1     156.046 166.927 185.544  0.00  0.00    +0.087 C 
ATOM     38  C   UNL     1     154.969 166.192 184.744  0.00  0.00    +0.026 C 
ATOM     39  S   UNL     1     153.872 165.511 186.026  0.00  0.00    -0.066 S 
ATOM     40  C   UNL     1     154.286 166.768 187.168  0.00  0.00    +0.272 C 
ATOM     41  O   UNL     1     153.683 166.998 188.200  0.00  0.00    -0.263 OA
ATOM     42  N   UNL     1     155.392 167.438 186.736  0.00  0.00    -0.298 N 
ATOM     43  H   UNL     1     156.784 166.186 185.886  0.00  0.00    +0.056 HD
ATOM     44  H   UNL     1     155.383 165.399 184.116  0.00  0.00    +0.040 HD
ATOM     45  H   UNL     1     154.375 166.867 184.121  0.00  0.00    +0.040 HD
ATOM     46  H   UNL     1     155.765 168.162 187.335  0.00  0.00    +0.150 HD
ENDBRANCH   8  37
BRANCH   1  47
ATOM     47  C   UNL     1     154.678 173.454 182.994  0.00  0.00    -0.059 C 
ATOM     48  H   UNL     1     154.300 174.291 182.399  0.00  0.00    +0.024 HD
ATOM     49  H   UNL     1     154.956 173.840 183.981  0.00  0.00    +0.024 HD
ATOM     50  H   UNL     1     153.849 172.750 183.132  0.00  0.00    +0.024 HD
ENDBRANCH   1  47
BRANCH  14  51
ATOM     51  C   UNL     1     161.457 173.280 184.154  0.00  0.00    -0.043 C 
ATOM     52  H   UNL     1     160.843 174.160 184.369  0.00  0.00    +0.027 HD
ATOM     53  H   UNL     1     162.380 173.629 183.680  0.00  0.00    +0.027 HD
ATOM     54  H   UNL     1     161.732 172.803 185.100  0.00  0.00    +0.027 HD
ENDBRANCH  14  51
BRANCH   8  55
ATOM     55  O   UNL     1     157.379 168.944 185.574  0.00  0.00    -0.363 OA
ATOM     56  H   UNL     1     157.738 168.450 186.333  0.00  0.00    +0.213 HD
ENDBRANCH   8  55
TORSDOF 4
ENDMDL
MODEL 10
REMARK VINA RESULT:      -5.8      4.056      7.441
REMARK  Name = Latrunculin B_conf2
REMARK  4 active torsions:
REMARK  status: ('A' for Active; 'I' for Inactive)
REMARK    1  A    between atoms: C_1  and  C_2
REMARK    2  A    between atoms: C_9  and  C_11
REMARK    3  A    between atoms: C_9  and  O_17
REMARK    4  A    between atoms: C_22  and  C_27
REMARK                            x       y       z     vdW  Elec       q    Type
REMARK                         _______ _______ _______ _____ _____    ______ ____
ROOT
ATOM      1  C   UNL     1     151.753 166.270 192.714  0.00  0.00    -0.026 C 
ATOM      2  C   UNL     1     151.239 167.721 192.599  0.00  0.00    -0.045 C 
ATOM      3  C   UNL     1     149.717 167.863 192.745  0.00  0.00    -0.026 C 
ATOM      4  C   UNL     1     148.898 167.259 191.592  0.00  0.00    +0.065 C 
ATOM      5  C   UNL     1     149.090 168.020 190.279  0.00  0.00    +0.011 C 
ATOM      6  C   UNL     1     148.193 167.437 189.184  0.00  0.00    +0.111 C 
ATOM      7  C   UNL     1     146.742 167.377 189.664  0.00  0.00    +0.040 C 
ATOM      8  C   UNL     1     146.624 166.701 191.042  0.00  0.00    +0.190 C 
ATOM      9  O   UNL     1     147.518 167.320 191.973  0.00  0.00    -0.344 OA
ATOM     10  O   UNL     1     148.612 166.093 188.856  0.00  0.00    -0.458 OA
ATOM     11  C   UNL     1     149.714 166.010 188.064  0.00  0.00    +0.332 C 
ATOM     12  O   UNL     1     150.325 166.939 187.567  0.00  0.00    -0.246 OA
ATOM     13  C   UNL     1     150.074 164.588 187.926  0.00  0.00    +0.021 C 
ATOM     14  C   UNL     1     151.269 164.082 188.296  0.00  0.00    -0.066 C 
ATOM     15  C   UNL     1     152.381 164.887 188.949  0.00  0.00    -0.028 C 
ATOM     16  C   UNL     1     152.723 164.386 190.359  0.00  0.00    -0.031 C 
ATOM     17  C   UNL     1     153.551 165.382 191.125  0.00  0.00    -0.087 C 
ATOM     18  C   UNL     1     153.148 166.170 192.137  0.00  0.00    -0.085 C 
ATOM     19  H   UNL     1     151.081 165.614 192.158  0.00  0.00    +0.034 HD
ATOM     20  H   UNL     1     151.716 168.334 193.376  0.00  0.00    +0.027 HD
ATOM     21  H   UNL     1     151.552 168.159 191.644  0.00  0.00    +0.027 HD
ATOM     22  H   UNL     1     149.388 167.418 193.693  0.00  0.00    +0.029 HD
ATOM     23  H   UNL     1     149.469 168.929 192.834  0.00  0.00    +0.029 HD
ATOM     24  H   UNL     1     149.173 166.207 191.471  0.00  0.00    +0.060 HD
ATOM     25  H   UNL     1     148.821 169.074 190.422  0.00  0.00    +0.033 HD
ATOM     26  H   UNL     1     150.138 167.981 189.971  0.00  0.00    +0.033 HD
ATOM     27  H   UNL     1     148.234 168.059 188.281  0.00  0.00    +0.074 HD
ATOM     28  H   UNL     1     146.146 166.829 188.924  0.00  0.00    +0.035 HD
ATOM     29  H   UNL     1     146.364 168.404 189.728  0.00  0.00    +0.035 HD
ATOM     30  H   UNL     1     149.299 163.964 187.497  0.00  0.00    +0.069 HD
ATOM     31  H   UNL     1     153.275 164.839 188.312  0.00  0.00    +0.031 HD
ATOM     32  H   UNL     1     152.114 165.948 189.008  0.00  0.00    +0.031 HD
ATOM     33  H   UNL     1     153.297 163.452 190.292  0.00  0.00    +0.031 HD
ATOM     34  H   UNL     1     151.808 164.128 190.903  0.00  0.00    +0.031 HD
ATOM     35  H   UNL     1     154.595 165.448 190.819  0.00  0.00    +0.057 HD
ATOM     36  H   UNL     1     153.891 166.826 192.591  0.00  0.00    +0.057 HD
ENDROOT
BRANCH   8  37
ATOM     37  C   UNL     1     145.185 166.881 191.615  0.00  0.00    +0.087 C 
ATOM     38  C   UNL     1     144.902 165.920 192.771  0.00  0.00    +0.026 C 
ATOM     39  S   UNL     1     143.086 165.847 192.834  0.00  0.00    -0.066 S 
ATOM     40  C   UNL     1     142.926 166.226 191.135  0.00  0.00    +0.272 C 
ATOM     41  O   UNL     1     141.902 166.106 190.488  0.00  0.00    -0.263 OA
ATOM     42  N   UNL     1     144.115 166.687 190.652  0.00  0.00    -0.298 N 
ATOM     43  H   UNL     1     145.083 167.909 191.992  0.00  0.00    +0.056 HD
ATOM     44  H   UNL     1     145.318 166.273 193.719  0.00  0.00    +0.040 HD
ATOM     45  H   UNL     1     145.271 164.908 192.575  0.00  0.00    +0.040 HD
ATOM     46  H   UNL     1     144.143 166.989 189.688  0.00  0.00    +0.150 HD
ENDBRANCH   8  37
BRANCH   1  47
ATOM     47  C   UNL     1     151.762 165.786 194.166  0.00  0.00    -0.059 C 
ATOM     48  H   UNL     1     152.501 166.333 194.760  0.00  0.00    +0.024 HD
ATOM     49  H   UNL     1     151.998 164.718 194.234  0.00  0.00    +0.024 HD
ATOM     50  H   UNL     1     150.784 165.943 194.636  0.00  0.00    +0.024 HD
ENDBRANCH   1  47
BRANCH  14  51
ATOM     51  C   UNL     1     151.572 162.624 188.059  0.00  0.00    -0.043 C 
ATOM     52  H   UNL     1     150.901 162.217 187.297  0.00  0.00    +0.027 HD
ATOM     53  H   UNL     1     151.443 162.025 188.967  0.00  0.00    +0.027 HD
ATOM     54  H   UNL     1     152.606 162.494 187.723  0.00  0.00    +0.027 HD
ENDBRANCH  14  51
BRANCH   8  55
ATOM     55  O   UNL     1     146.892 165.303 190.952  0.00  0.00    -0.363 OA
ATOM     56  H   UNL     1     147.431 165.054 191.723  0.00  0.00    +0.213 HD
ENDBRANCH   8  55
TORSDOF 4
ENDMDL
