MODEL 1
REMARK VINA RESULT:      -7.6      0.000      0.000
REMARK  Name = Latrunculin B_conf1
REMARK  4 active torsions:
REMARK  status: ('A' for Active; 'I' for Inactive)
REMARK    1  A    between atoms: C_1  and  C_2
REMARK    2  A    between atoms: C_9  and  C_11
REMARK    3  A    between atoms: C_9  and  O_17
REMARK    4  A    between atoms: C_22  and  C_27
REMARK                            x       y       z     vdW  Elec       q    Type
REMARK                         _______ _______ _______ _____ _____    ______ ____
ROOT
ATOM      1  C   UNL     1     145.569 168.472 189.929  0.00  0.00    -0.026 C 
ATOM      2  C   UNL     1     146.371 167.230 189.486  0.00  0.00    -0.045 C 
ATOM      3  C   UNL     1     147.901 167.396 189.513  0.00  0.00    -0.026 C 
ATOM      4  C   UNL     1     148.460 167.703 190.906  0.00  0.00    +0.065 C 
ATOM      5  C   UNL     1     149.971 167.908 190.861  0.00  0.00    +0.011 C 
ATOM      6  C   UNL     1     150.487 168.220 192.266  0.00  0.00    +0.111 C 
ATOM      7  C   UNL     1     150.040 167.120 193.237  0.00  0.00    +0.040 C 
ATOM      8  C   UNL     1     148.539 166.792 193.121  0.00  0.00    +0.190 C 
ATOM      9  O   UNL     1     148.154 166.604 191.765  0.00  0.00    -0.344 OA
ATOM     10  O   UNL     1     149.965 169.478 192.736  0.00  0.00    -0.458 OA
ATOM     11  C   UNL     1     150.510 170.595 192.205  0.00  0.00    +0.332 C 
ATOM     12  O   UNL     1     151.450 170.664 191.431  0.00  0.00    -0.246 OA
ATOM     13  C   UNL     1     149.763 171.755 192.715  0.00  0.00    +0.021 C 
ATOM     14  C   UNL     1     148.738 172.323 192.049  0.00  0.00    -0.066 C 
ATOM     15  C   UNL     1     148.233 171.855 190.695  0.00  0.00    -0.028 C 
ATOM     16  C   UNL     1     146.781 171.351 190.724  0.00  0.00    -0.031 C 
ATOM     17  C   UNL     1     146.347 170.860 189.369  0.00  0.00    -0.087 C 
ATOM     18  C   UNL     1     145.844 169.659 189.034  0.00  0.00    -0.085 C 
ATOM     19  H   UNL     1     145.817 168.701 190.969  0.00  0.00    +0.034 HD
ATOM     20  H   UNL     1     146.080 166.951 188.465  0.00  0.00    +0.027 HD
ATOM     21  H   UNL     1     146.095 166.379 190.122  0.00  0.00    +0.027 HD
ATOM     22  H   UNL     1     148.337 166.456 189.150  0.00  0.00    +0.029 HD
ATOM     23  H   UNL     1     148.202 168.178 188.806  0.00  0.00    +0.029 HD
ATOM     24  H   UNL     1     147.982 168.609 191.290  0.00  0.00    +0.060 HD
ATOM     25  H   UNL     1     150.214 168.718 190.165  0.00  0.00    +0.033 HD
ATOM     26  H   UNL     1     150.461 166.995 190.500  0.00  0.00    +0.033 HD
ATOM     27  H   UNL     1     151.583 168.267 192.271  0.00  0.00    +0.074 HD
ATOM     28  H   UNL     1     150.633 166.227 193.010  0.00  0.00    +0.035 HD
ATOM     29  H   UNL     1     150.270 167.430 194.264  0.00  0.00    +0.035 HD
ATOM     30  H   UNL     1     150.100 172.118 193.678  0.00  0.00    +0.069 HD
ATOM     31  H   UNL     1     148.874 171.063 190.289  0.00  0.00    +0.031 HD
ATOM     32  H   UNL     1     148.318 172.693 189.990  0.00  0.00    +0.031 HD
ATOM     33  H   UNL     1     146.108 172.170 191.007  0.00  0.00    +0.031 HD
ATOM     34  H   UNL     1     146.674 170.581 191.492  0.00  0.00    +0.031 HD
ATOM     35  H   UNL     1     146.449 171.591 188.566  0.00  0.00    +0.057 HD
ATOM     36  H   UNL     1     145.587 169.508 187.984  0.00  0.00    +0.057 HD
ENDROOT
BRANCH   8  37
ATOM     37  C   UNL     1     148.198 165.505 193.953  0.00  0.00    +0.087 C 
ATOM     38  C   UNL     1     147.062 165.696 194.957  0.00  0.00    +0.026 C 
ATOM     39  S   UNL     1     147.874 166.023 196.550  0.00  0.00    -0.066 S 
ATOM     40  C   UNL     1     149.379 165.297 196.048  0.00  0.00    +0.272 C 
ATOM     41  O   UNL     1     150.312 165.045 196.789  0.00  0.00    -0.263 OA
ATOM     42  N   UNL     1     149.343 165.022 194.714  0.00  0.00    -0.298 N 
ATOM     43  H   UNL     1     147.952 164.700 193.249  0.00  0.00    +0.056 HD
ATOM     44  H   UNL     1     146.360 166.493 194.700  0.00  0.00    +0.040 HD
ATOM     45  H   UNL     1     146.497 164.764 195.064  0.00  0.00    +0.040 HD
ATOM     46  H   UNL     1     150.129 164.539 194.297  0.00  0.00    +0.150 HD
ENDBRANCH   8  37
BRANCH   1  47
ATOM     47  C   UNL     1     144.069 168.156 189.900  0.00  0.00    -0.059 C 
ATOM     48  H   UNL     1     143.606 168.562 188.995  0.00  0.00    +0.024 HD
ATOM     49  H   UNL     1     143.896 167.074 189.905  0.00  0.00    +0.024 HD
ATOM     50  H   UNL     1     143.549 168.586 190.765  0.00  0.00    +0.024 HD
ENDBRANCH   1  47
BRANCH  14  51
ATOM     51  C   UNL     1     148.045 173.528 192.627  0.00  0.00    -0.043 C 
ATOM     52  H   UNL     1     146.961 173.375 192.638  0.00  0.00    +0.027 HD
ATOM     53  H   UNL     1     148.241 174.436 192.046  0.00  0.00    +0.027 HD
ATOM     54  H   UNL     1     148.383 173.714 193.652  0.00  0.00    +0.027 HD
ENDBRANCH  14  51
BRANCH   8  55
ATOM     55  O   UNL     1     147.778 167.866 193.672  0.00  0.00    -0.363 OA
ATOM     56  H   UNL     1     146.853 167.591 193.543  0.00  0.00    +0.213 HD
ENDBRANCH   8  55
TORSDOF 4
ENDMDL
MODEL 2
REMARK VINA RESULT:      -7.2      2.830      6.369
REMARK  Name = Latrunculin B_conf1
REMARK  4 active torsions:
REMARK  status: ('A' for Active; 'I' for Inactive)
REMARK    1  A    between atoms: C_1  and  C_2
REMARK    2  A    between atoms: C_9  and  C_11
REMARK    3  A    between atoms: C_9  and  O_17
REMARK    4  A    between atoms: C_22  and  C_27
REMARK                            x       y       z     vdW  Elec       q    Type
REMARK                         _______ _______ _______ _____ _____    ______ ____
ROOT
ATOM      1  C   UNL     1     147.715 166.393 195.393  0.00  0.00    -0.026 C 
ATOM      2  C   UNL     1     149.065 166.073 194.715  0.00  0.00    -0.045 C 
ATOM      3  C   UNL     1     148.980 165.739 193.216  0.00  0.00    -0.026 C 
ATOM      4  C   UNL     1     148.416 166.881 192.364  0.00  0.00    +0.065 C 
ATOM      5  C   UNL     1     148.308 166.475 190.898  0.00  0.00    +0.011 C 
ATOM      6  C   UNL     1     147.733 167.637 190.086  0.00  0.00    +0.111 C 
ATOM      7  C   UNL     1     148.577 168.896 190.319  0.00  0.00    +0.040 C 
ATOM      8  C   UNL     1     148.840 169.175 191.812  0.00  0.00    +0.190 C 
ATOM      9  O   UNL     1     149.290 168.005 192.484  0.00  0.00    -0.344 OA
ATOM     10  O   UNL     1     146.378 167.919 190.484  0.00  0.00    -0.458 OA
ATOM     11  C   UNL     1     145.431 167.054 190.060  0.00  0.00    +0.332 C 
ATOM     12  O   UNL     1     145.578 166.104 189.311  0.00  0.00    -0.246 OA
ATOM     13  C   UNL     1     144.149 167.445 190.670  0.00  0.00    +0.021 C 
ATOM     14  C   UNL     1     143.681 166.902 191.811  0.00  0.00    -0.066 C 
ATOM     15  C   UNL     1     144.397 165.821 192.602  0.00  0.00    -0.028 C 
ATOM     16  C   UNL     1     144.803 166.265 194.017  0.00  0.00    -0.031 C 
ATOM     17  C   UNL     1     145.546 165.173 194.739  0.00  0.00    -0.087 C 
ATOM     18  C   UNL     1     146.762 165.223 195.311  0.00  0.00    -0.085 C 
ATOM     19  H   UNL     1     147.285 167.281 194.923  0.00  0.00    +0.034 HD
ATOM     20  H   UNL     1     149.538 165.222 195.224  0.00  0.00    +0.027 HD
ATOM     21  H   UNL     1     149.745 166.923 194.853  0.00  0.00    +0.027 HD
ATOM     22  H   UNL     1     149.998 165.507 192.876  0.00  0.00    +0.029 HD
ATOM     23  H   UNL     1     148.383 164.832 193.070  0.00  0.00    +0.029 HD
ATOM     24  H   UNL     1     147.425 167.150 192.740  0.00  0.00    +0.060 HD
ATOM     25  H   UNL     1     147.678 165.584 190.807  0.00  0.00    +0.033 HD
ATOM     26  H   UNL     1     149.302 166.227 190.505  0.00  0.00    +0.033 HD
ATOM     27  H   UNL     1     147.746 167.400 189.015  0.00  0.00    +0.074 HD
ATOM     28  H   UNL     1     149.529 168.750 189.796  0.00  0.00    +0.035 HD
ATOM     29  H   UNL     1     148.070 169.759 189.869  0.00  0.00    +0.035 HD
ATOM     30  H   UNL     1     143.610 168.212 190.128  0.00  0.00    +0.069 HD
ATOM     31  H   UNL     1     145.290 165.471 192.071  0.00  0.00    +0.031 HD
ATOM     32  H   UNL     1     143.733 164.948 192.667  0.00  0.00    +0.031 HD
ATOM     33  H   UNL     1     143.907 166.497 194.606  0.00  0.00    +0.031 HD
ATOM     34  H   UNL     1     145.386 167.188 193.960  0.00  0.00    +0.031 HD
ATOM     35  H   UNL     1     145.008 164.226 194.808  0.00  0.00    +0.057 HD
ATOM     36  H   UNL     1     147.117 164.309 195.792  0.00  0.00    +0.057 HD
ENDROOT
BRANCH   8  37
ATOM     37  C   UNL     1     149.901 170.320 191.972  0.00  0.00    +0.087 C 
ATOM     38  C   UNL     1     149.815 171.066 193.303  0.00  0.00    +0.026 C 
ATOM     39  S   UNL     1     148.843 172.563 192.958  0.00  0.00    -0.066 S 
ATOM     40  C   UNL     1     149.170 172.503 191.245  0.00  0.00    +0.272 C 
ATOM     41  O   UNL     1     148.914 173.394 190.455  0.00  0.00    -0.263 OA
ATOM     42  N   UNL     1     149.785 171.330 190.927  0.00  0.00    -0.298 N 
ATOM     43  H   UNL     1     150.898 169.880 191.847  0.00  0.00    +0.056 HD
ATOM     44  H   UNL     1     149.373 170.487 194.118  0.00  0.00    +0.040 HD
ATOM     45  H   UNL     1     150.813 171.390 193.616  0.00  0.00    +0.040 HD
ATOM     46  H   UNL     1     150.092 171.185 189.974  0.00  0.00    +0.150 HD
ENDBRANCH   8  37
BRANCH   1  47
ATOM     47  C   UNL     1     147.948 166.750 196.866  0.00  0.00    -0.059 C 
ATOM     48  H   UNL     1     148.330 167.771 196.959  0.00  0.00    +0.024 HD
ATOM     49  H   UNL     1     147.013 166.692 197.435  0.00  0.00    +0.024 HD
ATOM     50  H   UNL     1     148.673 166.075 197.336  0.00  0.00    +0.024 HD
ENDBRANCH   1  47
BRANCH  14  51
ATOM     51  C   UNL     1     142.345 167.336 192.353  0.00  0.00    -0.043 C 
ATOM     52  H   UNL     1     142.435 167.620 193.406  0.00  0.00    +0.027 HD
ATOM     53  H   UNL     1     141.596 166.538 192.294  0.00  0.00    +0.027 HD
ATOM     54  H   UNL     1     141.958 168.191 191.790  0.00  0.00    +0.027 HD
ENDBRANCH  14  51
BRANCH   8  55
ATOM     55  O   UNL     1     147.634 169.625 192.426  0.00  0.00    -0.363 OA
ATOM     56  H   UNL     1     147.900 169.845 193.336  0.00  0.00    +0.213 HD
ENDBRANCH   8  55
TORSDOF 4
ENDMDL
MODEL 3
REMARK VINA RESULT:      -7.1      3.020      6.692
REMARK  Name = Latrunculin B_conf1
REMARK  4 active torsions:
REMARK  status: ('A' for Active; 'I' for Inactive)
REMARK    1  A    between atoms: C_1  and  C_2
REMARK    2  A    between atoms: C_9  and  C_11
REMARK    3  A    between atoms: C_9  and  O_17
REMARK    4  A    between atoms: C_22  and  C_27
REMARK                            x       y       z     vdW  Elec       q    Type
REMARK                         _______ _______ _______ _____ _____    ______ ____
ROOT
ATOM      1  C   UNL     1     151.834 167.913 192.510  0.00  0.00    -0.026 C 
ATOM      2  C   UNL     1     151.663 168.059 190.983  0.00  0.00    -0.045 C 
ATOM      3  C   UNL     1     150.411 167.381 190.398  0.00  0.00    -0.026 C 
ATOM      4  C   UNL     1     149.096 167.935 190.958  0.00  0.00    +0.065 C 
ATOM      5  C   UNL     1     147.895 167.192 190.381  0.00  0.00    +0.011 C 
ATOM      6  C   UNL     1     146.607 167.768 190.971  0.00  0.00    +0.111 C 
ATOM      7  C   UNL     1     146.566 169.283 190.741  0.00  0.00    +0.040 C 
ATOM      8  C   UNL     1     147.874 169.988 191.150  0.00  0.00    +0.190 C 
ATOM      9  O   UNL     1     149.010 169.319 190.615  0.00  0.00    -0.344 OA
ATOM     10  O   UNL     1     146.538 167.521 192.388  0.00  0.00    -0.458 OA
ATOM     11  C   UNL     1     146.239 166.260 192.769  0.00  0.00    +0.332 C 
ATOM     12  O   UNL     1     145.942 165.321 192.052  0.00  0.00    -0.246 OA
ATOM     13  C   UNL     1     146.340 166.190 194.236  0.00  0.00    +0.021 C 
ATOM     14  C   UNL     1     147.452 165.781 194.879  0.00  0.00    -0.066 C 
ATOM     15  C   UNL     1     148.726 165.332 194.186  0.00  0.00    -0.028 C 
ATOM     16  C   UNL     1     149.939 166.224 194.497  0.00  0.00    -0.031 C 
ATOM     17  C   UNL     1     151.162 165.762 193.751  0.00  0.00    -0.087 C 
ATOM     18  C   UNL     1     151.952 166.463 192.920  0.00  0.00    -0.085 C 
ATOM     19  H   UNL     1     150.987 168.392 193.008  0.00  0.00    +0.034 HD
ATOM     20  H   UNL     1     152.542 167.640 190.475  0.00  0.00    +0.027 HD
ATOM     21  H   UNL     1     151.644 169.126 190.724  0.00  0.00    +0.027 HD
ATOM     22  H   UNL     1     150.433 167.540 189.312  0.00  0.00    +0.029 HD
ATOM     23  H   UNL     1     150.463 166.299 190.562  0.00  0.00    +0.029 HD
ATOM     24  H   UNL     1     149.100 167.829 192.046  0.00  0.00    +0.060 HD
ATOM     25  H   UNL     1     147.983 166.123 190.599  0.00  0.00    +0.033 HD
ATOM     26  H   UNL     1     147.869 167.313 189.290  0.00  0.00    +0.033 HD
ATOM     27  H   UNL     1     145.730 167.317 190.490  0.00  0.00    +0.074 HD
ATOM     28  H   UNL     1     146.376 169.445 189.674  0.00  0.00    +0.035 HD
ATOM     29  H   UNL     1     145.727 169.711 191.305  0.00  0.00    +0.035 HD
ATOM     30  H   UNL     1     145.446 166.499 194.763  0.00  0.00    +0.069 HD
ATOM     31  H   UNL     1     148.588 165.289 193.099  0.00  0.00    +0.031 HD
ATOM     32  H   UNL     1     148.939 164.300 194.496  0.00  0.00    +0.031 HD
ATOM     33  H   UNL     1     150.171 166.178 195.568  0.00  0.00    +0.031 HD
ATOM     34  H   UNL     1     149.695 167.267 194.276  0.00  0.00    +0.031 HD
ATOM     35  H   UNL     1     151.436 164.721 193.929  0.00  0.00    +0.057 HD
ATOM     36  H   UNL     1     152.800 165.933 192.482  0.00  0.00    +0.057 HD
ENDROOT
BRANCH   8  37
ATOM     37  C   UNL     1     147.861 171.481 190.667  0.00  0.00    +0.087 C 
ATOM     38  C   UNL     1     149.101 172.277 191.074  0.00  0.00    +0.026 C 
ATOM     39  S   UNL     1     148.626 173.180 192.578  0.00  0.00    -0.066 S 
ATOM     40  C   UNL     1     146.919 173.057 192.236  0.00  0.00    +0.272 C 
ATOM     41  O   UNL     1     146.045 173.659 192.831  0.00  0.00    -0.263 OA
ATOM     42  N   UNL     1     146.713 172.217 191.182  0.00  0.00    -0.298 N 
ATOM     43  H   UNL     1     147.748 171.485 189.576  0.00  0.00    +0.056 HD
ATOM     44  H   UNL     1     149.994 171.669 191.242  0.00  0.00    +0.040 HD
ATOM     45  H   UNL     1     149.336 173.022 190.306  0.00  0.00    +0.040 HD
ATOM     46  H   UNL     1     145.771 172.101 190.832  0.00  0.00    +0.150 HD
ENDBRANCH   8  37
BRANCH   1  47
ATOM     47  C   UNL     1     153.088 168.669 192.965  0.00  0.00    -0.059 C 
ATOM     48  H   UNL     1     152.847 169.365 193.774  0.00  0.00    +0.024 HD
ATOM     49  H   UNL     1     153.849 167.975 193.338  0.00  0.00    +0.024 HD
ATOM     50  H   UNL     1     153.531 169.247 192.144  0.00  0.00    +0.024 HD
ENDBRANCH   1  47
BRANCH  14  51
ATOM     51  C   UNL     1     147.462 165.709 196.384  0.00  0.00    -0.043 C 
ATOM     52  H   UNL     1     148.389 166.137 196.779  0.00  0.00    +0.027 HD
ATOM     53  H   UNL     1     147.398 164.678 196.748  0.00  0.00    +0.027 HD
ATOM     54  H   UNL     1     146.614 166.259 196.803  0.00  0.00    +0.027 HD
ENDBRANCH  14  51
BRANCH   8  55
ATOM     55  O   UNL     1     147.975 170.003 192.573  0.00  0.00    -0.363 OA
ATOM     56  H   UNL     1     148.851 170.393 192.743  0.00  0.00    +0.213 HD
ENDBRANCH   8  55
TORSDOF 4
ENDMDL
MODEL 4
REMARK VINA RESULT:      -6.5      3.223      5.485
REMARK  Name = Latrunculin B_conf1
REMARK  4 active torsions:
REMARK  status: ('A' for Active; 'I' for Inactive)
REMARK    1  A    between atoms: C_1  and  C_2
REMARK    2  A    between atoms: C_9  and  C_11
REMARK    3  A    between atoms: C_9  and  O_17
REMARK    4  A    between atoms: C_22  and  C_27
REMARK                            x       y       z     vdW  Elec       q    Type
REMARK                         _______ _______ _______ _____ _____    ______ ____
ROOT
ATOM      1  C   UNL     1     148.335 171.264 192.146  0.00  0.00    -0.026 C 
ATOM      2  C   UNL     1     147.281 171.227 191.019  0.00  0.00    -0.045 C 
ATOM      3  C   UNL     1     147.515 170.155 189.940  0.00  0.00    -0.026 C 
ATOM      4  C   UNL     1     147.502 168.723 190.485  0.00  0.00    +0.065 C 
ATOM      5  C   UNL     1     147.790 167.710 189.382  0.00  0.00    +0.011 C 
ATOM      6  C   UNL     1     147.777 166.298 189.969  0.00  0.00    +0.111 C 
ATOM      7  C   UNL     1     146.453 166.055 190.702  0.00  0.00    +0.040 C 
ATOM      8  C   UNL     1     146.085 167.196 191.670  0.00  0.00    +0.190 C 
ATOM      9  O   UNL     1     146.212 168.467 191.044  0.00  0.00    -0.344 OA
ATOM     10  O   UNL     1     148.854 166.124 190.909  0.00  0.00    -0.458 OA
ATOM     11  C   UNL     1     150.093 165.979 190.389  0.00  0.00    +0.332 C 
ATOM     12  O   UNL     1     150.397 165.899 189.212  0.00  0.00    -0.246 OA
ATOM     13  C   UNL     1     151.055 165.942 191.503  0.00  0.00    +0.021 C 
ATOM     14  C   UNL     1     151.713 167.032 191.945  0.00  0.00    -0.066 C 
ATOM     15  C   UNL     1     151.563 168.421 191.352  0.00  0.00    -0.028 C 
ATOM     16  C   UNL     1     150.993 169.451 192.342  0.00  0.00    -0.031 C 
ATOM     17  C   UNL     1     150.824 170.798 191.691  0.00  0.00    -0.087 C 
ATOM     18  C   UNL     1     149.716 171.554 191.606  0.00  0.00    -0.085 C 
ATOM     19  H   UNL     1     148.316 170.309 192.679  0.00  0.00    +0.034 HD
ATOM     20  H   UNL     1     147.244 172.205 190.521  0.00  0.00    +0.027 HD
ATOM     21  H   UNL     1     146.287 171.076 191.461  0.00  0.00    +0.027 HD
ATOM     22  H   UNL     1     146.715 170.262 189.196  0.00  0.00    +0.029 HD
ATOM     23  H   UNL     1     148.460 170.351 189.420  0.00  0.00    +0.029 HD
ATOM     24  H   UNL     1     148.262 168.633 191.267  0.00  0.00    +0.060 HD
ATOM     25  H   UNL     1     148.756 167.933 188.918  0.00  0.00    +0.033 HD
ATOM     26  H   UNL     1     147.018 167.776 188.604  0.00  0.00    +0.033 HD
ATOM     27  H   UNL     1     147.878 165.550 189.172  0.00  0.00    +0.074 HD
ATOM     28  H   UNL     1     145.673 165.951 189.939  0.00  0.00    +0.035 HD
ATOM     29  H   UNL     1     146.514 165.109 191.256  0.00  0.00    +0.035 HD
ATOM     30  H   UNL     1     151.189 164.963 191.947  0.00  0.00    +0.069 HD
ATOM     31  H   UNL     1     150.929 168.402 190.458  0.00  0.00    +0.031 HD
ATOM     32  H   UNL     1     152.551 168.754 191.004  0.00  0.00    +0.031 HD
ATOM     33  H   UNL     1     151.683 169.578 193.185  0.00  0.00    +0.031 HD
ATOM     34  H   UNL     1     150.055 169.078 192.761  0.00  0.00    +0.031 HD
ATOM     35  H   UNL     1     151.733 171.205 191.245  0.00  0.00    +0.057 HD
ATOM     36  H   UNL     1     149.812 172.511 191.090  0.00  0.00    +0.057 HD
ENDROOT
BRANCH   8  37
ATOM     37  C   UNL     1     144.619 167.010 192.198  0.00  0.00    +0.087 C 
ATOM     38  C   UNL     1     143.907 165.779 191.637  0.00  0.00    +0.026 C 
ATOM     39  S   UNL     1     142.903 166.390 190.250  0.00  0.00    -0.066 S 
ATOM     40  C   UNL     1     142.903 168.032 190.840  0.00  0.00    +0.272 C 
ATOM     41  O   UNL     1     142.208 168.930 190.402  0.00  0.00    -0.263 OA
ATOM     42  N   UNL     1     143.770 168.153 191.885  0.00  0.00    -0.298 N 
ATOM     43  H   UNL     1     144.654 166.961 193.293  0.00  0.00    +0.056 HD
ATOM     44  H   UNL     1     144.577 164.976 191.317  0.00  0.00    +0.040 HD
ATOM     45  H   UNL     1     143.218 165.372 192.385  0.00  0.00    +0.040 HD
ATOM     46  H   UNL     1     143.827 169.040 192.368  0.00  0.00    +0.150 HD
ENDBRANCH   8  37
BRANCH   1  47
ATOM     47  C   UNL     1     147.958 172.339 193.172  0.00  0.00    -0.059 C 
ATOM     48  H   UNL     1     148.647 173.188 193.111  0.00  0.00    +0.024 HD
ATOM     49  H   UNL     1     146.946 172.718 192.989  0.00  0.00    +0.024 HD
ATOM     50  H   UNL     1     147.993 171.950 194.196  0.00  0.00    +0.024 HD
ENDBRANCH   1  47
BRANCH  14  51
ATOM     51  C   UNL     1     152.704 166.902 193.071  0.00  0.00    -0.043 C 
ATOM     52  H   UNL     1     153.367 167.772 193.097  0.00  0.00    +0.027 HD
ATOM     53  H   UNL     1     153.336 166.013 192.965  0.00  0.00    +0.027 HD
ATOM     54  H   UNL     1     152.188 166.825 194.033  0.00  0.00    +0.027 HD
ENDBRANCH  14  51
BRANCH   8  55
ATOM     55  O   UNL     1     146.952 167.150 192.802  0.00  0.00    -0.363 OA
ATOM     56  H   UNL     1     146.386 166.817 193.520  0.00  0.00    +0.213 HD
ENDBRANCH   8  55
TORSDOF 4
ENDMDL
MODEL 5
REMARK VINA RESULT:      -6.3      2.597      3.236
REMARK  Name = Latrunculin B_conf1
REMARK  4 active torsions:
REMARK  status: ('A' for Active; 'I' for Inactive)
REMARK    1  A    between atoms: C_1  and  C_2
REMARK    2  A    between atoms: C_9  and  C_11
REMARK    3  A    between atoms: C_9  and  O_17
REMARK    4  A    between atoms: C_22  and  C_27
REMARK                            x       y       z     vdW  Elec       q    Type
REMARK                         _______ _______ _______ _____ _____    ______ ____
ROOT
ATOM      1  C   UNL     1     145.208 170.664 189.781  0.00  0.00    -0.026 C 
ATOM      2  C   UNL     1     145.318 169.479 188.798  0.00  0.00    -0.045 C 
ATOM      3  C   UNL     1     146.733 168.897 188.632  0.00  0.00    -0.026 C 
ATOM      4  C   UNL     1     147.323 168.338 189.932  0.00  0.00    +0.065 C 
ATOM      5  C   UNL     1     148.742 167.823 189.717  0.00  0.00    +0.011 C 
ATOM      6  C   UNL     1     149.295 167.284 191.037  0.00  0.00    +0.111 C 
ATOM      7  C   UNL     1     148.336 166.233 191.608  0.00  0.00    +0.040 C 
ATOM      8  C   UNL     1     146.870 166.708 191.630  0.00  0.00    +0.190 C 
ATOM      9  O   UNL     1     146.489 167.267 190.378  0.00  0.00    -0.344 OA
ATOM     10  O   UNL     1     149.437 168.342 192.003  0.00  0.00    -0.458 OA
ATOM     11  C   UNL     1     150.475 169.188 191.826  0.00  0.00    +0.332 C 
ATOM     12  O   UNL     1     151.356 169.114 190.986  0.00  0.00    -0.246 OA
ATOM     13  C   UNL     1     150.371 170.257 192.832  0.00  0.00    +0.021 C 
ATOM     14  C   UNL     1     149.777 171.442 192.590  0.00  0.00    -0.066 C 
ATOM     15  C   UNL     1     149.155 171.832 191.260  0.00  0.00    -0.028 C 
ATOM     16  C   UNL     1     147.642 172.088 191.343  0.00  0.00    -0.031 C 
ATOM     17  C   UNL     1     147.070 172.427 189.993  0.00  0.00    -0.087 C 
ATOM     18  C   UNL     1     146.058 171.833 189.338  0.00  0.00    -0.085 C 
ATOM     19  H   UNL     1     145.500 170.325 190.778  0.00  0.00    +0.034 HD
ATOM     20  H   UNL     1     144.963 169.791 187.807  0.00  0.00    +0.027 HD
ATOM     21  H   UNL     1     144.640 168.679 189.124  0.00  0.00    +0.027 HD
ATOM     22  H   UNL     1     146.668 168.089 187.892  0.00  0.00    +0.029 HD
ATOM     23  H   UNL     1     147.402 169.658 188.214  0.00  0.00    +0.029 HD
ATOM     24  H   UNL     1     147.334 169.129 190.686  0.00  0.00    +0.060 HD
ATOM     25  H   UNL     1     149.372 168.629 189.327  0.00  0.00    +0.033 HD
ATOM     26  H   UNL     1     148.737 167.011 188.978  0.00  0.00    +0.033 HD
ATOM     27  H   UNL     1     150.274 166.814 190.879  0.00  0.00    +0.074 HD
ATOM     28  H   UNL     1     148.426 165.337 190.984  0.00  0.00    +0.035 HD
ATOM     29  H   UNL     1     148.652 165.971 192.626  0.00  0.00    +0.035 HD
ATOM     30  H   UNL     1     150.809 170.013 193.792  0.00  0.00    +0.069 HD
ATOM     31  H   UNL     1     149.343 171.066 190.499  0.00  0.00    +0.031 HD
ATOM     32  H   UNL     1     149.662 172.737 190.898  0.00  0.00    +0.031 HD
ATOM     33  H   UNL     1     147.444 172.940 192.006  0.00  0.00    +0.031 HD
ATOM     34  H   UNL     1     147.146 171.223 191.792  0.00  0.00    +0.031 HD
ATOM     35  H   UNL     1     147.544 173.277 189.499  0.00  0.00    +0.057 HD
ATOM     36  H   UNL     1     145.796 172.243 188.360  0.00  0.00    +0.057 HD
ENDROOT
BRANCH   8  37
ATOM     37  C   UNL     1     145.917 165.514 191.989  0.00  0.00    +0.087 C 
ATOM     38  C   UNL     1     144.921 165.159 190.886  0.00  0.00    +0.026 C 
ATOM     39  S   UNL     1     143.376 166.003 191.338  0.00  0.00    -0.066 S 
ATOM     40  C   UNL     1     143.825 166.146 193.017  0.00  0.00    +0.272 C 
ATOM     41  O   UNL     1     143.076 166.493 193.912  0.00  0.00    -0.263 OA
ATOM     42  N   UNL     1     145.127 165.780 193.186  0.00  0.00    -0.298 N 
ATOM     43  H   UNL     1     146.538 164.644 192.234  0.00  0.00    +0.056 HD
ATOM     44  H   UNL     1     145.244 165.437 189.879  0.00  0.00    +0.040 HD
ATOM     45  H   UNL     1     144.720 164.082 190.896  0.00  0.00    +0.040 HD
ATOM     46  H   UNL     1     145.506 165.753 194.123  0.00  0.00    +0.150 HD
ENDBRANCH   8  37
BRANCH   1  47
ATOM     47  C   UNL     1     143.747 171.115 189.886  0.00  0.00    -0.059 C 
ATOM     48  H   UNL     1     143.582 171.678 190.810  0.00  0.00    +0.024 HD
ATOM     49  H   UNL     1     143.476 171.766 189.047  0.00  0.00    +0.024 HD
ATOM     50  H   UNL     1     143.060 170.260 189.886  0.00  0.00    +0.024 HD
ENDBRANCH   1  47
BRANCH  14  51
ATOM     51  C   UNL     1     149.739 172.495 193.666  0.00  0.00    -0.043 C 
ATOM     52  H   UNL     1     150.602 173.163 193.575  0.00  0.00    +0.027 HD
ATOM     53  H   UNL     1     149.769 172.059 194.671  0.00  0.00    +0.027 HD
ATOM     54  H   UNL     1     148.824 173.091 193.593  0.00  0.00    +0.027 HD
ENDBRANCH  14  51
BRANCH   8  55
ATOM     55  O   UNL     1     146.711 167.698 192.644  0.00  0.00    -0.363 OA
ATOM     56  H   UNL     1     147.213 167.344 193.400  0.00  0.00    +0.213 HD
ENDBRANCH   8  55
TORSDOF 4
ENDMDL
MODEL 6
REMARK VINA RESULT:      -6.1      5.060      7.595
REMARK  Name = Latrunculin B_conf1
REMARK  4 active torsions:
REMARK  status: ('A' for Active; 'I' for Inactive)
REMARK    1  A    between atoms: C_1  and  C_2
REMARK    2  A    between atoms: C_9  and  C_11
REMARK    3  A    between atoms: C_9  and  O_17
REMARK    4  A    between atoms: C_22  and  C_27
REMARK                            x       y       z     vdW  Elec       q    Type
REMARK                         _______ _______ _______ _____ _____    ______ ____
ROOT
ATOM      1  C   UNL     1     152.827 166.644 192.453  0.00  0.00    -0.026 C 
ATOM      2  C   UNL     1     153.414 165.382 191.785  0.00  0.00    -0.045 C 
ATOM      3  C   UNL     1     152.467 164.654 190.816  0.00  0.00    -0.026 C 
ATOM      4  C   UNL     1     152.027 165.514 189.627  0.00  0.00    +0.065 C 
ATOM      5  C   UNL     1     151.051 164.759 188.730  0.00  0.00    +0.011 C 
ATOM      6  C   UNL     1     150.631 165.653 187.563  0.00  0.00    +0.111 C 
ATOM      7  C   UNL     1     151.877 166.164 186.829  0.00  0.00    +0.040 C 
ATOM      8  C   UNL     1     152.939 166.745 187.783  0.00  0.00    +0.190 C 
ATOM      9  O   UNL     1     153.189 165.868 188.874  0.00  0.00    -0.344 OA
ATOM     10  O   UNL     1     149.883 166.791 188.033  0.00  0.00    -0.458 OA
ATOM     11  C   UNL     1     148.608 166.561 188.416  0.00  0.00    +0.332 C 
ATOM     12  O   UNL     1     147.988 165.514 188.335  0.00  0.00    -0.246 OA
ATOM     13  C   UNL     1     148.065 167.810 188.974  0.00  0.00    +0.021 C 
ATOM     14  C   UNL     1     148.073 168.093 190.292  0.00  0.00    -0.066 C 
ATOM     15  C   UNL     1     148.623 167.167 191.363  0.00  0.00    -0.028 C 
ATOM     16  C   UNL     1     149.819 167.758 192.127  0.00  0.00    -0.031 C 
ATOM     17  C   UNL     1     150.352 166.784 193.144  0.00  0.00    -0.087 C 
ATOM     18  C   UNL     1     151.605 166.316 193.280  0.00  0.00    -0.085 C 
ATOM     19  H   UNL     1     152.588 167.376 191.677  0.00  0.00    +0.034 HD
ATOM     20  H   UNL     1     153.720 164.666 192.560  0.00  0.00    +0.027 HD
ATOM     21  H   UNL     1     154.332 165.655 191.248  0.00  0.00    +0.027 HD
ATOM     22  H   UNL     1     153.000 163.771 190.442  0.00  0.00    +0.029 HD
ATOM     23  H   UNL     1     151.589 164.288 191.360  0.00  0.00    +0.029 HD
ATOM     24  H   UNL     1     151.547 166.422 190.002  0.00  0.00    +0.060 HD
ATOM     25  H   UNL     1     150.181 164.442 189.315  0.00  0.00    +0.033 HD
ATOM     26  H   UNL     1     151.533 163.858 188.329  0.00  0.00    +0.033 HD
ATOM     27  H   UNL     1     150.012 165.092 186.853  0.00  0.00    +0.074 HD
ATOM     28  H   UNL     1     152.298 165.316 186.277  0.00  0.00    +0.035 HD
ATOM     29  H   UNL     1     151.579 166.929 186.102  0.00  0.00    +0.035 HD
ATOM     30  H   UNL     1     147.660 168.492 188.237  0.00  0.00    +0.069 HD
ATOM     31  H   UNL     1     148.919 166.202 190.935  0.00  0.00    +0.031 HD
ATOM     32  H   UNL     1     147.812 166.940 192.068  0.00  0.00    +0.031 HD
ATOM     33  H   UNL     1     149.507 168.660 192.668  0.00  0.00    +0.031 HD
ATOM     34  H   UNL     1     150.590 168.072 191.418  0.00  0.00    +0.031 HD
ATOM     35  H   UNL     1     149.614 166.431 193.866  0.00  0.00    +0.057 HD
ATOM     36  H   UNL     1     151.781 165.613 194.096  0.00  0.00    +0.057 HD
ENDROOT
BRANCH   8  37
ATOM     37  C   UNL     1     154.274 167.020 187.006  0.00  0.00    +0.087 C 
ATOM     38  C   UNL     1     154.462 166.150 185.764  0.00  0.00    +0.026 C 
ATOM     39  S   UNL     1     155.522 164.772 186.293  0.00  0.00    -0.066 S 
ATOM     40  C   UNL     1     156.146 165.646 187.668  0.00  0.00    +0.272 C 
ATOM     41  O   UNL     1     157.085 165.286 188.355  0.00  0.00    -0.263 OA
ATOM     42  N   UNL     1     155.451 166.805 187.839  0.00  0.00    -0.298 N 
ATOM     43  H   UNL     1     154.297 168.082 186.733  0.00  0.00    +0.056 HD
ATOM     44  H   UNL     1     153.531 165.786 185.322  0.00  0.00    +0.040 HD
ATOM     45  H   UNL     1     155.009 166.707 184.996  0.00  0.00    +0.040 HD
ATOM     46  H   UNL     1     155.747 167.446 188.565  0.00  0.00    +0.150 HD
ENDBRANCH   8  37
BRANCH   1  47
ATOM     47  C   UNL     1     153.884 167.293 193.353  0.00  0.00    -0.059 C 
ATOM     48  H   UNL     1     154.241 168.231 192.914  0.00  0.00    +0.024 HD
ATOM     49  H   UNL     1     153.469 167.525 194.340  0.00  0.00    +0.024 HD
ATOM     50  H   UNL     1     154.751 166.637 193.496  0.00  0.00    +0.024 HD
ENDBRANCH   1  47
BRANCH  14  51
ATOM     51  C   UNL     1     147.470 169.382 190.784  0.00  0.00    -0.043 C 
ATOM     52  H   UNL     1     146.538 169.184 191.324  0.00  0.00    +0.027 HD
ATOM     53  H   UNL     1     147.232 170.067 189.963  0.00  0.00    +0.027 HD
ATOM     54  H   UNL     1     148.161 169.901 191.456  0.00  0.00    +0.027 HD
ENDBRANCH  14  51
BRANCH   8  55
ATOM     55  O   UNL     1     152.479 167.996 188.293  0.00  0.00    -0.363 OA
ATOM     56  H   UNL     1     152.512 168.591 187.523  0.00  0.00    +0.213 HD
ENDBRANCH   8  55
TORSDOF 4
ENDMDL
MODEL 7
REMARK VINA RESULT:      -5.7      3.453      5.719
REMARK  Name = Latrunculin B_conf1
REMARK  4 active torsions:
REMARK  status: ('A' for Active; 'I' for Inactive)
REMARK    1  A    between atoms: C_1  and  C_2
REMARK    2  A    between atoms: C_9  and  C_11
REMARK    3  A    between atoms: C_9  and  O_17
REMARK    4  A    between atoms: C_22  and  C_27
REMARK                            x       y       z     vdW  Elec       q    Type
REMARK                         _______ _______ _______ _____ _____    ______ ____
ROOT
ATOM      1  C   UNL     1     148.609 167.911 186.741  0.00  0.00    -0.026 C 
ATOM      2  C   UNL     1     147.327 167.532 187.513  0.00  0.00    -0.045 C 
ATOM      3  C   UNL     1     147.546 166.636 188.745  0.00  0.00    -0.026 C 
ATOM      4  C   UNL     1     148.431 167.277 189.819  0.00  0.00    +0.065 C 
ATOM      5  C   UNL     1     148.655 166.325 190.990  0.00  0.00    +0.011 C 
ATOM      6  C   UNL     1     149.548 166.998 192.033  0.00  0.00    +0.111 C 
ATOM      7  C   UNL     1     148.942 168.347 192.439  0.00  0.00    +0.040 C 
ATOM      8  C   UNL     1     148.540 169.212 191.229  0.00  0.00    +0.190 C 
ATOM      9  O   UNL     1     147.785 168.462 190.285  0.00  0.00    -0.344 OA
ATOM     10  O   UNL     1     150.866 167.234 191.502  0.00  0.00    -0.458 OA
ATOM     11  C   UNL     1     151.675 166.158 191.392  0.00  0.00    +0.332 C 
ATOM     12  O   UNL     1     151.449 165.020 191.764  0.00  0.00    -0.246 OA
ATOM     13  C   UNL     1     152.915 166.584 190.722  0.00  0.00    +0.021 C 
ATOM     14  C   UNL     1     153.110 166.469 189.393  0.00  0.00    -0.066 C 
ATOM     15  C   UNL     1     152.098 165.880 188.426  0.00  0.00    -0.028 C 
ATOM     16  C   UNL     1     151.599 166.885 187.375  0.00  0.00    -0.031 C 
ATOM     17  C   UNL     1     150.567 166.263 186.472  0.00  0.00    -0.087 C 
ATOM     18  C   UNL     1     149.319 166.687 186.209  0.00  0.00    -0.085 C 
ATOM     19  H   UNL     1     149.263 168.485 187.403  0.00  0.00    +0.034 HD
ATOM     20  H   UNL     1     146.634 167.013 186.838  0.00  0.00    +0.027 HD
ATOM     21  H   UNL     1     146.813 168.449 187.827  0.00  0.00    +0.027 HD
ATOM     22  H   UNL     1     146.558 166.425 189.174  0.00  0.00    +0.029 HD
ATOM     23  H   UNL     1     147.970 165.674 188.435  0.00  0.00    +0.029 HD
ATOM     24  H   UNL     1     149.396 167.539 189.375  0.00  0.00    +0.060 HD
ATOM     25  H   UNL     1     149.105 165.395 190.629  0.00  0.00    +0.033 HD
ATOM     26  H   UNL     1     147.693 166.075 191.457  0.00  0.00    +0.033 HD
ATOM     27  H   UNL     1     149.634 166.370 192.928  0.00  0.00    +0.074 HD
ATOM     28  H   UNL     1     148.060 168.135 193.053  0.00  0.00    +0.035 HD
ATOM     29  H   UNL     1     149.664 168.895 193.058  0.00  0.00    +0.035 HD
ATOM     30  H   UNL     1     153.661 167.005 191.383  0.00  0.00    +0.069 HD
ATOM     31  H   UNL     1     151.233 165.471 188.962  0.00  0.00    +0.031 HD
ATOM     32  H   UNL     1     152.564 165.023 187.923  0.00  0.00    +0.031 HD
ATOM     33  H   UNL     1     152.435 167.209 186.743  0.00  0.00    +0.031 HD
ATOM     34  H   UNL     1     151.220 167.781 187.873  0.00  0.00    +0.031 HD
ATOM     35  H   UNL     1     150.896 165.356 185.963  0.00  0.00    +0.057 HD
ATOM     36  H   UNL     1     148.731 166.085 185.513  0.00  0.00    +0.057 HD
ENDROOT
BRANCH   8  37
ATOM     37  C   UNL     1     147.711 170.457 191.703  0.00  0.00    +0.087 C 
ATOM     38  C   UNL     1     147.606 171.570 190.659  0.00  0.00    +0.026 C 
ATOM     39  S   UNL     1     148.900 172.768 191.098  0.00  0.00    -0.066 S 
ATOM     40  C   UNL     1     149.000 172.211 192.748  0.00  0.00    +0.272 C 
ATOM     41  O   UNL     1     149.608 172.776 193.639  0.00  0.00    -0.263 OA
ATOM     42  N   UNL     1     148.271 171.070 192.901  0.00  0.00    -0.298 N 
ATOM     43  H   UNL     1     146.710 170.111 191.990  0.00  0.00    +0.056 HD
ATOM     44  H   UNL     1     147.714 171.231 189.626  0.00  0.00    +0.040 HD
ATOM     45  H   UNL     1     146.642 172.081 190.753  0.00  0.00    +0.040 HD
ATOM     46  H   UNL     1     148.187 170.668 193.826  0.00  0.00    +0.150 HD
ENDBRANCH   8  37
BRANCH   1  47
ATOM     47  C   UNL     1     148.255 168.837 185.572  0.00  0.00    -0.059 C 
ATOM     48  H   UNL     1     148.991 169.642 185.481  0.00  0.00    +0.024 HD
ATOM     49  H   UNL     1     148.246 168.286 184.625  0.00  0.00    +0.024 HD
ATOM     50  H   UNL     1     147.268 169.296 185.706  0.00  0.00    +0.024 HD
ENDBRANCH   1  47
BRANCH  14  51
ATOM     51  C   UNL     1     154.420 166.902 188.789  0.00  0.00    -0.043 C 
ATOM     52  H   UNL     1     154.694 166.241 187.960  0.00  0.00    +0.027 HD
ATOM     53  H   UNL     1     155.240 166.872 189.516  0.00  0.00    +0.027 HD
ATOM     54  H   UNL     1     154.353 167.927 188.412  0.00  0.00    +0.027 HD
ENDBRANCH  14  51
BRANCH   8  55
ATOM     55  O   UNL     1     149.717 169.705 190.590  0.00  0.00    -0.363 OA
ATOM     56  H   UNL     1     150.320 169.904 191.329  0.00  0.00    +0.213 HD
ENDBRANCH   8  55
TORSDOF 4
ENDMDL
MODEL 8
REMARK VINA RESULT:      -5.7      2.142      3.191
REMARK  Name = Latrunculin B_conf1
REMARK  4 active torsions:
REMARK  status: ('A' for Active; 'I' for Inactive)
REMARK    1  A    between atoms: C_1  and  C_2
REMARK    2  A    between atoms: C_9  and  C_11
REMARK    3  A    between atoms: C_9  and  O_17
REMARK    4  A    between atoms: C_22  and  C_27
REMARK                            x       y       z     vdW  Elec       q    Type
REMARK                         _______ _______ _______ _____ _____    ______ ____
ROOT
ATOM      1  C   UNL     1     142.623 166.789 191.907  0.00  0.00    -0.026 C 
ATOM      2  C   UNL     1     143.180 165.428 191.440  0.00  0.00    -0.045 C 
ATOM      3  C   UNL     1     144.387 165.507 190.489  0.00  0.00    -0.026 C 
ATOM      4  C   UNL     1     145.608 166.199 191.104  0.00  0.00    +0.065 C 
ATOM      5  C   UNL     1     146.753 166.294 190.100  0.00  0.00    +0.011 C 
ATOM      6  C   UNL     1     147.945 166.998 190.749  0.00  0.00    +0.111 C 
ATOM      7  C   UNL     1     148.322 166.281 192.051  0.00  0.00    +0.040 C 
ATOM      8  C   UNL     1     147.109 166.019 192.964  0.00  0.00    +0.190 C 
ATOM      9  O   UNL     1     146.031 165.440 192.238  0.00  0.00    -0.344 OA
ATOM     10  O   UNL     1     147.624 168.366 191.061  0.00  0.00    -0.458 OA
ATOM     11  C   UNL     1     147.582 169.230 190.023  0.00  0.00    +0.332 C 
ATOM     12  O   UNL     1     147.863 169.003 188.859  0.00  0.00    -0.246 OA
ATOM     13  C   UNL     1     147.120 170.533 190.530  0.00  0.00    +0.021 C 
ATOM     14  C   UNL     1     145.830 170.922 190.493  0.00  0.00    -0.066 C 
ATOM     15  C   UNL     1     144.700 170.086 189.920  0.00  0.00    -0.028 C 
ATOM     16  C   UNL     1     143.636 169.699 190.960  0.00  0.00    -0.031 C 
ATOM     17  C   UNL     1     142.564 168.836 190.350  0.00  0.00    -0.087 C 
ATOM     18  C   UNL     1     142.142 167.622 190.741  0.00  0.00    -0.085 C 
ATOM     19  H   UNL     1     143.400 167.316 192.469  0.00  0.00    +0.034 HD
ATOM     20  H   UNL     1     142.387 164.862 190.933  0.00  0.00    +0.027 HD
ATOM     21  H   UNL     1     143.459 164.833 192.320  0.00  0.00    +0.027 HD
ATOM     22  H   UNL     1     144.657 164.478 190.219  0.00  0.00    +0.029 HD
ATOM     23  H   UNL     1     144.097 166.013 189.561  0.00  0.00    +0.029 HD
ATOM     24  H   UNL     1     145.323 167.205 191.425  0.00  0.00    +0.060 HD
ATOM     25  H   UNL     1     146.417 166.832 189.207  0.00  0.00    +0.033 HD
ATOM     26  H   UNL     1     147.062 165.287 189.790  0.00  0.00    +0.033 HD
ATOM     27  H   UNL     1     148.812 166.981 190.077  0.00  0.00    +0.074 HD
ATOM     28  H   UNL     1     148.790 165.330 191.774  0.00  0.00    +0.035 HD
ATOM     29  H   UNL     1     149.065 166.881 192.591  0.00  0.00    +0.035 HD
ATOM     30  H   UNL     1     147.903 171.157 190.942  0.00  0.00    +0.069 HD
ATOM     31  H   UNL     1     145.084 169.172 189.451  0.00  0.00    +0.031 HD
ATOM     32  H   UNL     1     144.230 170.657 189.108  0.00  0.00    +0.031 HD
ATOM     33  H   UNL     1     143.148 170.603 191.348  0.00  0.00    +0.031 HD
ATOM     34  H   UNL     1     144.115 169.213 191.814  0.00  0.00    +0.031 HD
ATOM     35  H   UNL     1     142.066 169.275 189.484  0.00  0.00    +0.057 HD
ATOM     36  H   UNL     1     141.340 167.167 190.156  0.00  0.00    +0.057 HD
ENDROOT
BRANCH   8  37
ATOM     37  C   UNL     1     147.515 165.075 194.151  0.00  0.00    +0.087 C 
ATOM     38  C   UNL     1     146.868 165.441 195.486  0.00  0.00    +0.026 C 
ATOM     39  S   UNL     1     148.111 166.427 196.373  0.00  0.00    -0.066 S 
ATOM     40  C   UNL     1     149.435 165.800 195.424  0.00  0.00    +0.272 C 
ATOM     41  O   UNL     1     150.614 165.967 195.677  0.00  0.00    -0.263 OA
ATOM     42  N   UNL     1     148.955 165.067 194.381  0.00  0.00    -0.298 N 
ATOM     43  H   UNL     1     147.256 164.047 193.872  0.00  0.00    +0.056 HD
ATOM     44  H   UNL     1     145.923 165.983 195.397  0.00  0.00    +0.040 HD
ATOM     45  H   UNL     1     146.689 164.535 196.075  0.00  0.00    +0.040 HD
ATOM     46  H   UNL     1     149.614 164.589 193.780  0.00  0.00    +0.150 HD
ENDBRANCH   8  37
BRANCH   1  47
ATOM     47  C   UNL     1     141.460 166.566 192.881  0.00  0.00    -0.059 C 
ATOM     48  H   UNL     1     140.540 167.014 192.492  0.00  0.00    +0.024 HD
ATOM     49  H   UNL     1     141.272 165.496 193.027  0.00  0.00    +0.024 HD
ATOM     50  H   UNL     1     141.663 167.011 193.862  0.00  0.00    +0.024 HD
ENDBRANCH   1  47
BRANCH  14  51
ATOM     51  C   UNL     1     145.445 172.285 191.006  0.00  0.00    -0.043 C 
ATOM     52  H   UNL     1     145.391 172.279 192.099  0.00  0.00    +0.027 HD
ATOM     53  H   UNL     1     144.466 172.605 190.632  0.00  0.00    +0.027 HD
ATOM     54  H   UNL     1     146.177 173.036 190.694  0.00  0.00    +0.027 HD
ENDBRANCH  14  51
BRANCH   8  55
ATOM     55  O   UNL     1     146.673 167.252 193.533  0.00  0.00    -0.363 OA
ATOM     56  H   UNL     1     145.740 167.091 193.759  0.00  0.00    +0.213 HD
ENDBRANCH   8  55
TORSDOF 4
ENDMDL
MODEL 9
REMARK VINA RESULT:      -5.7      2.036      3.799
REMARK  Name = Latrunculin B_conf1
REMARK  4 active torsions:
REMARK  status: ('A' for Active; 'I' for Inactive)
REMARK    1  A    between atoms: C_1  and  C_2
REMARK    2  A    between atoms: C_9  and  C_11
REMARK    3  A    between atoms: C_9  and  O_17
REMARK    4  A    between atoms: C_22  and  C_27
REMARK                            x       y       z     vdW  Elec       q    Type
REMARK                         _______ _______ _______ _____ _____    ______ ____
ROOT
ATOM      1  C   UNL     1     149.861 165.404 188.344  0.00  0.00    -0.026 C 
ATOM      2  C   UNL     1     150.947 165.581 189.428  0.00  0.00    -0.045 C 
ATOM      3  C   UNL     1     150.932 166.939 190.152  0.00  0.00    -0.026 C 
ATOM      4  C   UNL     1     149.628 167.217 190.906  0.00  0.00    +0.065 C 
ATOM      5  C   UNL     1     149.652 168.595 191.560  0.00  0.00    +0.011 C 
ATOM      6  C   UNL     1     148.332 168.837 192.293  0.00  0.00    +0.111 C 
ATOM      7  C   UNL     1     148.070 167.690 193.276  0.00  0.00    +0.040 C 
ATOM      8  C   UNL     1     148.247 166.299 192.637  0.00  0.00    +0.190 C 
ATOM      9  O   UNL     1     149.468 166.216 191.912  0.00  0.00    -0.344 OA
ATOM     10  O   UNL     1     147.234 168.897 191.363  0.00  0.00    -0.458 OA
ATOM     11  C   UNL     1     147.122 170.027 190.631  0.00  0.00    +0.332 C 
ATOM     12  O   UNL     1     147.797 171.038 190.721  0.00  0.00    -0.246 OA
ATOM     13  C   UNL     1     146.026 169.840 189.666  0.00  0.00    +0.021 C 
ATOM     14  C   UNL     1     146.222 169.419 188.401  0.00  0.00    -0.066 C 
ATOM     15  C   UNL     1     147.582 169.098 187.807  0.00  0.00    -0.028 C 
ATOM     16  C   UNL     1     147.734 167.628 187.384  0.00  0.00    -0.031 C 
ATOM     17  C   UNL     1     149.113 167.355 186.843  0.00  0.00    -0.087 C 
ATOM     18  C   UNL     1     150.002 166.431 187.244  0.00  0.00    -0.085 C 
ATOM     19  H   UNL     1     148.877 165.470 188.816  0.00  0.00    +0.034 HD
ATOM     20  H   UNL     1     151.939 165.450 188.976  0.00  0.00    +0.027 HD
ATOM     21  H   UNL     1     150.845 164.780 190.171  0.00  0.00    +0.027 HD
ATOM     22  H   UNL     1     151.766 166.935 190.866  0.00  0.00    +0.029 HD
ATOM     23  H   UNL     1     151.131 167.744 189.436  0.00  0.00    +0.029 HD
ATOM     24  H   UNL     1     148.792 167.164 190.203  0.00  0.00    +0.060 HD
ATOM     25  H   UNL     1     149.824 169.363 190.798  0.00  0.00    +0.033 HD
ATOM     26  H   UNL     1     150.474 168.651 192.285  0.00  0.00    +0.033 HD
ATOM     27  H   UNL     1     148.372 169.778 192.855  0.00  0.00    +0.074 HD
ATOM     28  H   UNL     1     148.774 167.809 194.108  0.00  0.00    +0.035 HD
ATOM     29  H   UNL     1     147.052 167.783 193.677  0.00  0.00    +0.035 HD
ATOM     30  H   UNL     1     145.041 170.064 190.057  0.00  0.00    +0.069 HD
ATOM     31  H   UNL     1     148.387 169.350 188.507  0.00  0.00    +0.031 HD
ATOM     32  H   UNL     1     147.737 169.749 186.935  0.00  0.00    +0.031 HD
ATOM     33  H   UNL     1     147.017 167.393 186.587  0.00  0.00    +0.031 HD
ATOM     34  H   UNL     1     147.489 166.975 188.226  0.00  0.00    +0.031 HD
ATOM     35  H   UNL     1     149.408 167.993 186.009  0.00  0.00    +0.057 HD
ATOM     36  H   UNL     1     150.953 166.398 186.708  0.00  0.00    +0.057 HD
ENDROOT
BRANCH   8  37
ATOM     37  C   UNL     1     148.209 165.185 193.741  0.00  0.00    +0.087 C 
ATOM     38  C   UNL     1     147.123 165.392 194.797  0.00  0.00    +0.026 C 
ATOM     39  S   UNL     1     147.957 166.191 196.200  0.00  0.00    -0.066 S 
ATOM     40  C   UNL     1     149.537 165.642 195.705  0.00  0.00    +0.272 C 
ATOM     41  O   UNL     1     150.546 165.721 196.383  0.00  0.00    -0.263 OA
ATOM     42  N   UNL     1     149.470 165.082 194.465  0.00  0.00    -0.298 N 
ATOM     43  H   UNL     1     148.075 164.216 193.244  0.00  0.00    +0.056 HD
ATOM     44  H   UNL     1     146.268 165.982 194.456  0.00  0.00    +0.040 HD
ATOM     45  H   UNL     1     146.751 164.423 195.146  0.00  0.00    +0.040 HD
ATOM     46  H   UNL     1     150.305 164.661 194.076  0.00  0.00    +0.150 HD
ENDBRANCH   8  37
BRANCH   1  47
ATOM     47  C   UNL     1     149.959 163.999 187.738  0.00  0.00    -0.059 C 
ATOM     48  H   UNL     1     150.498 163.325 188.411  0.00  0.00    +0.024 HD
ATOM     49  H   UNL     1     148.963 163.575 187.571  0.00  0.00    +0.024 HD
ATOM     50  H   UNL     1     150.488 164.010 186.778  0.00  0.00    +0.024 HD
ENDBRANCH   1  47
BRANCH  14  51
ATOM     51  C   UNL     1     145.048 169.282 187.467  0.00  0.00    -0.043 C 
ATOM     52  H   UNL     1     144.709 168.242 187.431  0.00  0.00    +0.027 HD
ATOM     53  H   UNL     1     145.299 169.580 186.443  0.00  0.00    +0.027 HD
ATOM     54  H   UNL     1     144.216 169.911 187.797  0.00  0.00    +0.027 HD
ENDBRANCH  14  51
BRANCH   8  55
ATOM     55  O   UNL     1     147.163 166.050 191.745  0.00  0.00    -0.363 OA
ATOM     56  H   UNL     1     147.113 166.857 191.203  0.00  0.00    +0.213 HD
ENDBRANCH   8  55
TORSDOF 4
ENDMDL
MODEL 10
REMARK VINA RESULT:      -5.7      4.945      6.981
REMARK  Name = Latrunculin B_conf1
REMARK  4 active torsions:
REMARK  status: ('A' for Active; 'I' for Inactive)
REMARK    1  A    between atoms: C_1  and  C_2
REMARK    2  A    between atoms: C_9  and  C_11
REMARK    3  A    between atoms: C_9  and  O_17
REMARK    4  A    between atoms: C_22  and  C_27
REMARK                            x       y       z     vdW  Elec       q    Type
REMARK                         _______ _______ _______ _____ _____    ______ ____
ROOT
ATOM      1  C   UNL     1     150.326 166.074 186.637  0.00  0.00    -0.026 C 
ATOM      2  C   UNL     1     149.594 165.379 187.805  0.00  0.00    -0.045 C 
ATOM      3  C   UNL     1     150.495 164.565 188.750  0.00  0.00    -0.026 C 
ATOM      4  C   UNL     1     151.567 165.407 189.451  0.00  0.00    +0.065 C 
ATOM      5  C   UNL     1     152.460 164.540 190.333  0.00  0.00    +0.011 C 
ATOM      6  C   UNL     1     153.519 165.415 191.005  0.00  0.00    +0.111 C 
ATOM      7  C   UNL     1     152.837 166.565 191.757  0.00  0.00    +0.040 C 
ATOM      8  C   UNL     1     151.790 167.303 190.900  0.00  0.00    +0.190 C 
ATOM      9  O   UNL     1     150.911 166.388 190.256  0.00  0.00    -0.344 OA
ATOM     10  O   UNL     1     154.414 165.979 190.028  0.00  0.00    -0.458 OA
ATOM     11  C   UNL     1     155.332 165.143 189.496  0.00  0.00    +0.332 C 
ATOM     12  O   UNL     1     155.546 163.984 189.805  0.00  0.00    -0.246 OA
ATOM     13  C   UNL     1     156.057 165.872 188.441  0.00  0.00    +0.021 C 
ATOM     14  C   UNL     1     155.715 165.813 187.138  0.00  0.00    -0.066 C 
ATOM     15  C   UNL     1     154.563 164.990 186.591  0.00  0.00    -0.028 C 
ATOM     16  C   UNL     1     153.463 165.838 185.933  0.00  0.00    -0.031 C 
ATOM     17  C   UNL     1     152.327 164.977 185.448  0.00  0.00    -0.087 C 
ATOM     18  C   UNL     1     151.019 165.071 185.742  0.00  0.00    -0.085 C 
ATOM     19  H   UNL     1     151.041 166.793 187.045  0.00  0.00    +0.034 HD
ATOM     20  H   UNL     1     148.826 164.703 187.406  0.00  0.00    +0.027 HD
ATOM     21  H   UNL     1     149.055 166.136 188.391  0.00  0.00    +0.027 HD
ATOM     22  H   UNL     1     149.845 164.110 189.508  0.00  0.00    +0.029 HD
ATOM     23  H   UNL     1     150.965 163.743 188.199  0.00  0.00    +0.029 HD
ATOM     24  H   UNL     1     152.179 165.907 188.695  0.00  0.00    +0.060 HD
ATOM     25  H   UNL     1     152.926 163.755 189.728  0.00  0.00    +0.033 HD
ATOM     26  H   UNL     1     151.858 164.053 191.111  0.00  0.00    +0.033 HD
ATOM     27  H   UNL     1     154.103 164.826 191.723  0.00  0.00    +0.074 HD
ATOM     28  H   UNL     1     152.356 166.134 192.642  0.00  0.00    +0.035 HD
ATOM     29  H   UNL     1     153.601 167.276 192.097  0.00  0.00    +0.035 HD
ATOM     30  H   UNL     1     156.888 166.467 188.797  0.00  0.00    +0.069 HD
ATOM     31  H   UNL     1     154.111 164.374 187.377  0.00  0.00    +0.031 HD
ATOM     32  H   UNL     1     154.968 164.280 185.858  0.00  0.00    +0.031 HD
ATOM     33  H   UNL     1     153.870 166.365 185.061  0.00  0.00    +0.031 HD
ATOM     34  H   UNL     1     153.124 166.607 186.631  0.00  0.00    +0.031 HD
ATOM     35  H   UNL     1     152.620 164.184 184.758  0.00  0.00    +0.057 HD
ATOM     36  H   UNL     1     150.355 164.342 185.274  0.00  0.00    +0.057 HD
ENDROOT
BRANCH   8  37
ATOM     37  C   UNL     1     150.962 168.296 191.791  0.00  0.00    +0.087 C 
ATOM     38  C   UNL     1     150.136 167.613 192.881  0.00  0.00    +0.026 C 
ATOM     39  S   UNL     1     148.459 167.462 192.194  0.00  0.00    -0.066 S 
ATOM     40  C   UNL     1     148.714 168.730 191.023  0.00  0.00    +0.272 C 
ATOM     41  O   UNL     1     147.840 169.237 190.344  0.00  0.00    -0.263 OA
ATOM     42  N   UNL     1     150.028 169.093 191.006  0.00  0.00    -0.298 N 
ATOM     43  H   UNL     1     151.659 169.015 192.237  0.00  0.00    +0.056 HD
ATOM     44  H   UNL     1     150.522 166.641 193.198  0.00  0.00    +0.040 HD
ATOM     45  H   UNL     1     150.071 168.260 193.762  0.00  0.00    +0.040 HD
ATOM     46  H   UNL     1     150.310 169.865 190.415  0.00  0.00    +0.150 HD
ENDBRANCH   8  37
BRANCH   1  47
ATOM     47  C   UNL     1     149.324 166.882 185.806  0.00  0.00    -0.059 C 
ATOM     48  H   UNL     1     148.324 166.830 186.249  0.00  0.00    +0.024 HD
ATOM     49  H   UNL     1     149.613 167.938 185.761  0.00  0.00    +0.024 HD
ATOM     50  H   UNL     1     149.256 166.507 184.777  0.00  0.00    +0.024 HD
ENDBRANCH   1  47
BRANCH  14  51
ATOM     51  C   UNL     1     156.528 166.566 186.118  0.00  0.00    -0.043 C 
ATOM     52  H   UNL     1     157.269 165.904 185.659  0.00  0.00    +0.027 HD
ATOM     53  H   UNL     1     157.072 167.407 186.562  0.00  0.00    +0.027 HD
ATOM     54  H   UNL     1     155.883 166.970 185.331  0.00  0.00    +0.027 HD
ENDBRANCH  14  51
BRANCH   8  55
ATOM     55  O   UNL     1     152.457 168.080 189.907  0.00  0.00    -0.363 OA
ATOM     56  H   UNL     1     153.053 167.444 189.472  0.00  0.00    +0.213 HD
ENDBRANCH   8  55
TORSDOF 4
ENDMDL
