MODEL 1
REMARK VINA RESULT:      -7.2      0.000      0.000
REMARK  Name = Latrunculin B_conf3
REMARK  4 active torsions:
REMARK  status: ('A' for Active; 'I' for Inactive)
REMARK    1  A    between atoms: C_1  and  C_2
REMARK    2  A    between atoms: C_9  and  C_11
REMARK    3  A    between atoms: C_9  and  O_17
REMARK    4  A    between atoms: C_22  and  C_27
REMARK                            x       y       z     vdW  Elec       q    Type
REMARK                         _______ _______ _______ _____ _____    ______ ____
ROOT
ATOM      1  C   UNL     1     145.756 169.172 189.039  0.00  0.00    -0.026 C 
ATOM      2  C   UNL     1     146.897 168.213 188.635  0.00  0.00    -0.045 C 
ATOM      3  C   UNL     1     147.185 167.109 189.663  0.00  0.00    -0.026 C 
ATOM      4  C   UNL     1     147.782 167.603 190.992  0.00  0.00    +0.065 C 
ATOM      5  C   UNL     1     149.197 168.160 190.825  0.00  0.00    +0.011 C 
ATOM      6  C   UNL     1     149.781 168.560 192.181  0.00  0.00    +0.111 C 
ATOM      7  C   UNL     1     149.677 167.393 193.166  0.00  0.00    +0.040 C 
ATOM      8  C   UNL     1     148.254 166.806 193.211  0.00  0.00    +0.190 C 
ATOM      9  O   UNL     1     147.823 166.482 191.884  0.00  0.00    -0.344 OA
ATOM     10  O   UNL     1     149.050 169.678 192.733  0.00  0.00    -0.458 OA
ATOM     11  C   UNL     1     149.354 170.887 192.192  0.00  0.00    +0.332 C 
ATOM     12  O   UNL     1     150.207 171.119 191.354  0.00  0.00    -0.246 OA
ATOM     13  C   UNL     1     148.444 171.890 192.773  0.00  0.00    +0.021 C 
ATOM     14  C   UNL     1     147.607 172.652 192.039  0.00  0.00    -0.066 C 
ATOM     15  C   UNL     1     147.447 172.549 190.531  0.00  0.00    -0.028 C 
ATOM     16  C   UNL     1     146.027 172.140 190.114  0.00  0.00    -0.031 C 
ATOM     17  C   UNL     1     145.967 171.696 188.677  0.00  0.00    -0.087 C 
ATOM     18  C   UNL     1     145.834 170.440 188.217  0.00  0.00    -0.085 C 
ATOM     19  H   UNL     1     145.862 169.418 190.097  0.00  0.00    +0.034 HD
ATOM     20  H   UNL     1     147.817 168.778 188.446  0.00  0.00    +0.027 HD
ATOM     21  H   UNL     1     146.644 167.734 187.679  0.00  0.00    +0.027 HD
ATOM     22  H   UNL     1     147.875 166.381 189.216  0.00  0.00    +0.029 HD
ATOM     23  H   UNL     1     146.270 166.539 189.869  0.00  0.00    +0.029 HD
ATOM     24  H   UNL     1     147.118 168.359 191.422  0.00  0.00    +0.060 HD
ATOM     25  H   UNL     1     149.187 169.020 190.150  0.00  0.00    +0.033 HD
ATOM     26  H   UNL     1     149.844 167.393 190.381  0.00  0.00    +0.033 HD
ATOM     27  H   UNL     1     150.839 168.834 192.079  0.00  0.00    +0.074 HD
ATOM     28  H   UNL     1     149.970 167.745 194.163  0.00  0.00    +0.035 HD
ATOM     29  H   UNL     1     150.383 166.617 192.848  0.00  0.00    +0.035 HD
ATOM     30  H   UNL     1     148.494 171.976 193.852  0.00  0.00    +0.069 HD
ATOM     31  H   UNL     1     147.699 173.519 190.081  0.00  0.00    +0.031 HD
ATOM     32  H   UNL     1     148.157 171.831 190.109  0.00  0.00    +0.031 HD
ATOM     33  H   UNL     1     145.643 171.364 190.786  0.00  0.00    +0.031 HD
ATOM     34  H   UNL     1     145.346 172.993 190.232  0.00  0.00    +0.031 HD
ATOM     35  H   UNL     1     146.028 172.499 187.943  0.00  0.00    +0.057 HD
ATOM     36  H   UNL     1     145.792 170.302 187.136  0.00  0.00    +0.057 HD
ENDROOT
BRANCH   8  37
ATOM     37  C   UNL     1     148.244 165.463 194.021  0.00  0.00    +0.087 C 
ATOM     38  C   UNL     1     147.099 165.397 195.036  0.00  0.00    +0.026 C 
ATOM     39  S   UNL     1     147.850 165.787 196.646  0.00  0.00    -0.066 S 
ATOM     40  C   UNL     1     149.464 165.422 196.098  0.00  0.00    +0.272 C 
ATOM     41  O   UNL     1     150.443 165.344 196.820  0.00  0.00    -0.263 OA
ATOM     42  N   UNL     1     149.471 165.203 194.753  0.00  0.00    -0.298 N 
ATOM     43  H   UNL     1     148.119 164.642 193.304  0.00  0.00    +0.056 HD
ATOM     44  H   UNL     1     146.261 166.063 194.814  0.00  0.00    +0.040 HD
ATOM     45  H   UNL     1     146.713 164.373 195.097  0.00  0.00    +0.040 HD
ATOM     46  H   UNL     1     150.349 164.953 194.321  0.00  0.00    +0.150 HD
ENDBRANCH   8  37
BRANCH   1  47
ATOM     47  C   UNL     1     144.382 168.526 188.856  0.00  0.00    -0.059 C 
ATOM     48  H   UNL     1     144.479 167.487 188.522  0.00  0.00    +0.024 HD
ATOM     49  H   UNL     1     143.810 168.524 189.791  0.00  0.00    +0.024 HD
ATOM     50  H   UNL     1     143.792 169.057 188.103  0.00  0.00    +0.024 HD
ENDBRANCH   1  47
BRANCH  14  51
ATOM     51  C   UNL     1     146.755 173.695 192.715  0.00  0.00    -0.043 C 
ATOM     52  H   UNL     1     147.150 174.707 192.572  0.00  0.00    +0.027 HD
ATOM     53  H   UNL     1     146.701 173.512 193.793  0.00  0.00    +0.027 HD
ATOM     54  H   UNL     1     145.739 173.678 192.306  0.00  0.00    +0.027 HD
ENDBRANCH  14  51
BRANCH   8  55
ATOM     55  O   UNL     1     147.344 167.716 193.820  0.00  0.00    -0.363 OA
ATOM     56  H   UNL     1     147.376 167.576 194.782  0.00  0.00    +0.213 HD
ENDBRANCH   8  55
TORSDOF 4
ENDMDL
MODEL 2
REMARK VINA RESULT:      -6.8      3.105      7.158
REMARK  Name = Latrunculin B_conf3
REMARK  4 active torsions:
REMARK  status: ('A' for Active; 'I' for Inactive)
REMARK    1  A    between atoms: C_1  and  C_2
REMARK    2  A    between atoms: C_9  and  C_11
REMARK    3  A    between atoms: C_9  and  O_17
REMARK    4  A    between atoms: C_22  and  C_27
REMARK                            x       y       z     vdW  Elec       q    Type
REMARK                         _______ _______ _______ _____ _____    ______ ____
ROOT
ATOM      1  C   UNL     1     152.283 167.212 193.052  0.00  0.00    -0.026 C 
ATOM      2  C   UNL     1     151.997 167.120 191.537  0.00  0.00    -0.045 C 
ATOM      3  C   UNL     1     151.289 168.353 190.955  0.00  0.00    -0.026 C 
ATOM      4  C   UNL     1     149.841 168.553 191.434  0.00  0.00    +0.065 C 
ATOM      5  C   UNL     1     148.900 167.461 190.920  0.00  0.00    +0.011 C 
ATOM      6  C   UNL     1     147.460 167.747 191.351  0.00  0.00    +0.111 C 
ATOM      7  C   UNL     1     147.058 169.166 190.943  0.00  0.00    +0.040 C 
ATOM      8  C   UNL     1     148.097 170.209 191.396  0.00  0.00    +0.190 C 
ATOM      9  O   UNL     1     149.399 169.823 190.938  0.00  0.00    -0.344 OA
ATOM     10  O   UNL     1     147.334 167.641 192.786  0.00  0.00    -0.458 OA
ATOM     11  C   UNL     1     147.276 166.371 193.267  0.00  0.00    +0.332 C 
ATOM     12  O   UNL     1     147.256 165.343 192.613  0.00  0.00    -0.246 OA
ATOM     13  C   UNL     1     147.273 166.438 194.739  0.00  0.00    +0.021 C 
ATOM     14  C   UNL     1     148.207 165.852 195.514  0.00  0.00    -0.066 C 
ATOM     15  C   UNL     1     149.412 165.090 194.986  0.00  0.00    -0.028 C 
ATOM     16  C   UNL     1     150.744 165.736 195.394  0.00  0.00    -0.031 C 
ATOM     17  C   UNL     1     151.898 165.204 194.589  0.00  0.00    -0.087 C 
ATOM     18  C   UNL     1     152.566 165.833 193.607  0.00  0.00    -0.085 C 
ATOM     19  H   UNL     1     151.407 167.632 193.551  0.00  0.00    +0.034 HD
ATOM     20  H   UNL     1     151.402 166.226 191.318  0.00  0.00    +0.027 HD
ATOM     21  H   UNL     1     152.945 166.984 190.999  0.00  0.00    +0.027 HD
ATOM     22  H   UNL     1     151.290 168.276 189.859  0.00  0.00    +0.029 HD
ATOM     23  H   UNL     1     151.869 169.258 191.174  0.00  0.00    +0.029 HD
ATOM     24  H   UNL     1     149.829 168.589 192.528  0.00  0.00    +0.060 HD
ATOM     25  H   UNL     1     149.218 166.484 191.292  0.00  0.00    +0.033 HD
ATOM     26  H   UNL     1     148.935 167.432 189.824  0.00  0.00    +0.033 HD
ATOM     27  H   UNL     1     146.769 167.041 190.873  0.00  0.00    +0.074 HD
ATOM     28  H   UNL     1     146.079 169.397 191.382  0.00  0.00    +0.035 HD
ATOM     29  H   UNL     1     146.966 169.193 189.851  0.00  0.00    +0.035 HD
ATOM     30  H   UNL     1     146.451 167.003 195.165  0.00  0.00    +0.069 HD
ATOM     31  H   UNL     1     149.372 164.058 195.360  0.00  0.00    +0.031 HD
ATOM     32  H   UNL     1     149.379 165.013 193.894  0.00  0.00    +0.031 HD
ATOM     33  H   UNL     1     150.676 166.827 195.319  0.00  0.00    +0.031 HD
ATOM     34  H   UNL     1     150.947 165.527 196.453  0.00  0.00    +0.031 HD
ATOM     35  H   UNL     1     152.223 164.197 194.855  0.00  0.00    +0.057 HD
ATOM     36  H   UNL     1     153.394 165.300 193.139  0.00  0.00    +0.057 HD
ENDROOT
BRANCH   8  37
ATOM     37  C   UNL     1     147.793 171.601 190.742  0.00  0.00    +0.087 C 
ATOM     38  C   UNL     1     148.891 172.634 191.019  0.00  0.00    +0.026 C 
ATOM     39  S   UNL     1     148.251 173.678 192.363  0.00  0.00    -0.066 S 
ATOM     40  C   UNL     1     146.596 173.207 192.082  0.00  0.00    +0.272 C 
ATOM     41  O   UNL     1     145.626 173.728 192.605  0.00  0.00    -0.263 OA
ATOM     42  N   UNL     1     146.539 172.196 191.171  0.00  0.00    -0.298 N 
ATOM     43  H   UNL     1     147.723 171.454 189.657  0.00  0.00    +0.056 HD
ATOM     44  H   UNL     1     149.860 172.201 191.276  0.00  0.00    +0.040 HD
ATOM     45  H   UNL     1     149.026 173.278 190.142  0.00  0.00    +0.040 HD
ATOM     46  H   UNL     1     145.626 171.855 190.903  0.00  0.00    +0.150 HD
ENDBRANCH   8  37
BRANCH   1  47
ATOM     47  C   UNL     1     153.465 168.138 193.350  0.00  0.00    -0.059 C 
ATOM     48  H   UNL     1     153.208 169.181 193.137  0.00  0.00    +0.024 HD
ATOM     49  H   UNL     1     153.769 168.076 194.400  0.00  0.00    +0.024 HD
ATOM     50  H   UNL     1     154.332 167.883 192.733  0.00  0.00    +0.024 HD
ENDBRANCH   1  47
BRANCH  14  51
ATOM     51  C   UNL     1     148.088 165.923 197.015  0.00  0.00    -0.043 C 
ATOM     52  H   UNL     1     149.057 166.087 197.498  0.00  0.00    +0.027 HD
ATOM     53  H   UNL     1     147.673 164.993 197.416  0.00  0.00    +0.027 HD
ATOM     54  H   UNL     1     147.433 166.752 197.305  0.00  0.00    +0.027 HD
ENDBRANCH  14  51
BRANCH   8  55
ATOM     55  O   UNL     1     148.093 170.355 192.811  0.00  0.00    -0.363 OA
ATOM     56  H   UNL     1     147.237 170.738 193.072  0.00  0.00    +0.213 HD
ENDBRANCH   8  55
TORSDOF 4
ENDMDL
MODEL 3
REMARK VINA RESULT:      -6.3      3.072      5.276
REMARK  Name = Latrunculin B_conf3
REMARK  4 active torsions:
REMARK  status: ('A' for Active; 'I' for Inactive)
REMARK    1  A    between atoms: C_1  and  C_2
REMARK    2  A    between atoms: C_9  and  C_11
REMARK    3  A    between atoms: C_9  and  O_17
REMARK    4  A    between atoms: C_22  and  C_27
REMARK                            x       y       z     vdW  Elec       q    Type
REMARK                         _______ _______ _______ _____ _____    ______ ____
ROOT
ATOM      1  C   UNL     1     147.965 172.094 191.428  0.00  0.00    -0.026 C 
ATOM      2  C   UNL     1     148.542 171.459 192.711  0.00  0.00    -0.045 C 
ATOM      3  C   UNL     1     149.735 170.522 192.467  0.00  0.00    -0.026 C 
ATOM      4  C   UNL     1     149.393 169.221 191.722  0.00  0.00    +0.065 C 
ATOM      5  C   UNL     1     148.509 168.287 192.551  0.00  0.00    +0.011 C 
ATOM      6  C   UNL     1     148.264 166.974 191.804  0.00  0.00    +0.111 C 
ATOM      7  C   UNL     1     149.596 166.358 191.369  0.00  0.00    +0.040 C 
ATOM      8  C   UNL     1     150.486 167.376 190.632  0.00  0.00    +0.190 C 
ATOM      9  O   UNL     1     150.629 168.559 191.430  0.00  0.00    -0.344 OA
ATOM     10  O   UNL     1     147.472 167.210 190.619  0.00  0.00    -0.458 OA
ATOM     11  C   UNL     1     146.143 167.386 190.841  0.00  0.00    +0.332 C 
ATOM     12  O   UNL     1     145.564 167.303 191.909  0.00  0.00    -0.246 OA
ATOM     13  C   UNL     1     145.507 167.734 189.558  0.00  0.00    +0.021 C 
ATOM     14  C   UNL     1     144.823 168.877 189.350  0.00  0.00    -0.066 C 
ATOM     15  C   UNL     1     144.658 169.983 190.380  0.00  0.00    -0.028 C 
ATOM     16  C   UNL     1     145.286 171.309 189.929  0.00  0.00    -0.031 C 
ATOM     17  C   UNL     1     145.438 172.278 191.071  0.00  0.00    -0.087 C 
ATOM     18  C   UNL     1     146.575 172.627 191.698  0.00  0.00    -0.085 C 
ATOM     19  H   UNL     1     147.916 171.331 190.649  0.00  0.00    +0.034 HD
ATOM     20  H   UNL     1     147.759 170.913 193.249  0.00  0.00    +0.027 HD
ATOM     21  H   UNL     1     148.867 172.257 193.393  0.00  0.00    +0.027 HD
ATOM     22  H   UNL     1     150.185 170.265 193.436  0.00  0.00    +0.029 HD
ATOM     23  H   UNL     1     150.525 171.053 191.922  0.00  0.00    +0.029 HD
ATOM     24  H   UNL     1     148.906 169.471 190.774  0.00  0.00    +0.060 HD
ATOM     25  H   UNL     1     147.558 168.773 192.780  0.00  0.00    +0.033 HD
ATOM     26  H   UNL     1     149.007 168.058 193.501  0.00  0.00    +0.033 HD
ATOM     27  H   UNL     1     147.745 166.255 192.450  0.00  0.00    +0.074 HD
ATOM     28  H   UNL     1     149.393 165.498 190.719  0.00  0.00    +0.035 HD
ATOM     29  H   UNL     1     150.115 166.002 192.267  0.00  0.00    +0.035 HD
ATOM     30  H   UNL     1     145.628 166.992 188.777  0.00  0.00    +0.069 HD
ATOM     31  H   UNL     1     143.587 170.128 190.576  0.00  0.00    +0.031 HD
ATOM     32  H   UNL     1     145.100 169.694 191.340  0.00  0.00    +0.031 HD
ATOM     33  H   UNL     1     146.246 171.126 189.433  0.00  0.00    +0.031 HD
ATOM     34  H   UNL     1     144.649 171.781 189.170  0.00  0.00    +0.031 HD
ATOM     35  H   UNL     1     144.512 172.747 191.405  0.00  0.00    +0.057 HD
ATOM     36  H   UNL     1     146.502 173.362 192.500  0.00  0.00    +0.057 HD
ENDROOT
BRANCH   8  37
ATOM     37  C   UNL     1     151.929 166.797 190.436  0.00  0.00    +0.087 C 
ATOM     38  C   UNL     1     152.546 167.197 189.091  0.00  0.00    +0.026 C 
ATOM     39  S   UNL     1     152.351 165.746 188.013  0.00  0.00    -0.066 S 
ATOM     40  C   UNL     1     152.116 164.654 189.351  0.00  0.00    +0.272 C 
ATOM     41  O   UNL     1     152.087 163.438 189.260  0.00  0.00    -0.263 OA
ATOM     42  N   UNL     1     152.004 165.349 190.517  0.00  0.00    -0.298 N 
ATOM     43  H   UNL     1     152.562 167.195 191.238  0.00  0.00    +0.056 HD
ATOM     44  H   UNL     1     152.105 168.091 188.643  0.00  0.00    +0.040 HD
ATOM     45  H   UNL     1     153.622 167.371 189.211  0.00  0.00    +0.040 HD
ATOM     46  H   UNL     1     151.893 164.821 191.372  0.00  0.00    +0.150 HD
ENDBRANCH   8  37
BRANCH   1  47
ATOM     47  C   UNL     1     148.855 173.223 190.904  0.00  0.00    -0.059 C 
ATOM     48  H   UNL     1     148.698 174.143 191.479  0.00  0.00    +0.024 HD
ATOM     49  H   UNL     1     149.917 172.964 190.973  0.00  0.00    +0.024 HD
ATOM     50  H   UNL     1     148.631 173.450 189.857  0.00  0.00    +0.024 HD
ENDBRANCH   1  47
BRANCH  14  51
ATOM     51  C   UNL     1     144.154 169.120 188.021  0.00  0.00    -0.043 C 
ATOM     52  H   UNL     1     144.223 168.250 187.360  0.00  0.00    +0.027 HD
ATOM     53  H   UNL     1     144.616 169.966 187.504  0.00  0.00    +0.027 HD
ATOM     54  H   UNL     1     143.091 169.338 188.167  0.00  0.00    +0.027 HD
ENDBRANCH  14  51
BRANCH   8  55
ATOM     55  O   UNL     1     149.944 167.701 189.357  0.00  0.00    -0.363 OA
ATOM     56  H   UNL     1     150.624 167.521 188.685  0.00  0.00    +0.213 HD
ENDBRANCH   8  55
TORSDOF 4
ENDMDL
MODEL 4
REMARK VINA RESULT:      -6.2      3.573      6.195
REMARK  Name = Latrunculin B_conf3
REMARK  4 active torsions:
REMARK  status: ('A' for Active; 'I' for Inactive)
REMARK    1  A    between atoms: C_1  and  C_2
REMARK    2  A    between atoms: C_9  and  C_11
REMARK    3  A    between atoms: C_9  and  O_17
REMARK    4  A    between atoms: C_22  and  C_27
REMARK                            x       y       z     vdW  Elec       q    Type
REMARK                         _______ _______ _______ _____ _____    ______ ____
ROOT
ATOM      1  C   UNL     1     149.081 171.190 192.048  0.00  0.00    -0.026 C 
ATOM      2  C   UNL     1     148.354 171.665 190.771  0.00  0.00    -0.045 C 
ATOM      3  C   UNL     1     146.887 171.218 190.680  0.00  0.00    -0.026 C 
ATOM      4  C   UNL     1     146.683 169.705 190.490  0.00  0.00    +0.065 C 
ATOM      5  C   UNL     1     147.177 169.215 189.127  0.00  0.00    +0.011 C 
ATOM      6  C   UNL     1     146.878 167.725 188.951  0.00  0.00    +0.111 C 
ATOM      7  C   UNL     1     145.397 167.448 189.219  0.00  0.00    +0.040 C 
ATOM      8  C   UNL     1     144.933 168.057 190.556  0.00  0.00    +0.190 C 
ATOM      9  O   UNL     1     145.278 169.448 190.598  0.00  0.00    -0.344 OA
ATOM     10  O   UNL     1     147.656 166.943 189.883  0.00  0.00    -0.458 OA
ATOM     11  C   UNL     1     148.960 166.770 189.542  0.00  0.00    +0.332 C 
ATOM     12  O   UNL     1     149.504 167.149 188.520  0.00  0.00    -0.246 OA
ATOM     13  C   UNL     1     149.633 166.063 190.646  0.00  0.00    +0.021 C 
ATOM     14  C   UNL     1     150.690 166.562 191.317  0.00  0.00    -0.066 C 
ATOM     15  C   UNL     1     151.300 167.933 191.069  0.00  0.00    -0.028 C 
ATOM     16  C   UNL     1     151.205 168.852 192.295  0.00  0.00    -0.031 C 
ATOM     17  C   UNL     1     151.474 170.291 191.943  0.00  0.00    -0.087 C 
ATOM     18  C   UNL     1     150.578 171.289 191.855  0.00  0.00    -0.085 C 
ATOM     19  H   UNL     1     148.808 170.150 192.242  0.00  0.00    +0.034 HD
ATOM     20  H   UNL     1     148.891 171.323 189.880  0.00  0.00    +0.027 HD
ATOM     21  H   UNL     1     148.381 172.763 190.729  0.00  0.00    +0.027 HD
ATOM     22  H   UNL     1     146.409 171.746 189.843  0.00  0.00    +0.029 HD
ATOM     23  H   UNL     1     146.338 171.547 191.570  0.00  0.00    +0.029 HD
ATOM     24  H   UNL     1     147.193 169.173 191.299  0.00  0.00    +0.060 HD
ATOM     25  H   UNL     1     148.250 169.400 189.027  0.00  0.00    +0.033 HD
ATOM     26  H   UNL     1     146.665 169.769 188.330  0.00  0.00    +0.033 HD
ATOM     27  H   UNL     1     147.110 167.405 187.927  0.00  0.00    +0.074 HD
ATOM     28  H   UNL     1     145.236 166.363 189.225  0.00  0.00    +0.035 HD
ATOM     29  H   UNL     1     144.816 167.884 188.398  0.00  0.00    +0.035 HD
ATOM     30  H   UNL     1     149.211 165.094 190.887  0.00  0.00    +0.069 HD
ATOM     31  H   UNL     1     152.353 167.806 190.783  0.00  0.00    +0.031 HD
ATOM     32  H   UNL     1     150.818 168.429 190.220  0.00  0.00    +0.031 HD
ATOM     33  H   UNL     1     150.230 168.738 192.781  0.00  0.00    +0.031 HD
ATOM     34  H   UNL     1     151.945 168.546 193.046  0.00  0.00    +0.031 HD
ATOM     35  H   UNL     1     152.520 170.532 191.754  0.00  0.00    +0.057 HD
ATOM     36  H   UNL     1     150.954 172.281 191.602  0.00  0.00    +0.057 HD
ENDROOT
BRANCH   8  37
ATOM     37  C   UNL     1     143.371 167.984 190.675  0.00  0.00    +0.087 C 
ATOM     38  C   UNL     1     142.908 167.469 192.041  0.00  0.00    +0.026 C 
ATOM     39  S   UNL     1     142.477 165.721 191.783  0.00  0.00    -0.066 S 
ATOM     40  C   UNL     1     142.317 165.908 190.057  0.00  0.00    +0.272 C 
ATOM     41  O   UNL     1     141.864 165.063 189.305  0.00  0.00    -0.263 OA
ATOM     42  N   UNL     1     142.739 167.145 189.672  0.00  0.00    -0.298 N 
ATOM     43  H   UNL     1     142.977 168.999 190.537  0.00  0.00    +0.056 HD
ATOM     44  H   UNL     1     143.646 167.585 192.839  0.00  0.00    +0.040 HD
ATOM     45  H   UNL     1     141.993 167.988 192.345  0.00  0.00    +0.040 HD
ATOM     46  H   UNL     1     142.668 167.384 188.693  0.00  0.00    +0.150 HD
ENDBRANCH   8  37
BRANCH   1  47
ATOM     47  C   UNL     1     148.666 172.006 193.273  0.00  0.00    -0.059 C 
ATOM     48  H   UNL     1     147.579 172.136 193.307  0.00  0.00    +0.024 HD
ATOM     49  H   UNL     1     148.973 171.518 194.205  0.00  0.00    +0.024 HD
ATOM     50  H   UNL     1     149.114 173.005 193.253  0.00  0.00    +0.024 HD
ENDBRANCH   1  47
BRANCH  14  51
ATOM     51  C   UNL     1     151.352 165.740 192.394  0.00  0.00    -0.043 C 
ATOM     52  H   UNL     1     151.196 164.666 192.247  0.00  0.00    +0.027 HD
ATOM     53  H   UNL     1     150.954 166.001 193.379  0.00  0.00    +0.027 HD
ATOM     54  H   UNL     1     152.433 165.917 192.395  0.00  0.00    +0.027 HD
ENDBRANCH  14  51
BRANCH   8  55
ATOM     55  O   UNL     1     145.510 167.369 191.660  0.00  0.00    -0.363 OA
ATOM     56  H   UNL     1     144.834 167.296 192.356  0.00  0.00    +0.213 HD
ENDBRANCH   8  55
TORSDOF 4
ENDMDL
MODEL 5
REMARK VINA RESULT:      -6.1      4.713      6.692
REMARK  Name = Latrunculin B_conf3
REMARK  4 active torsions:
REMARK  status: ('A' for Active; 'I' for Inactive)
REMARK    1  A    between atoms: C_1  and  C_2
REMARK    2  A    between atoms: C_9  and  C_11
REMARK    3  A    between atoms: C_9  and  O_17
REMARK    4  A    between atoms: C_22  and  C_27
REMARK                            x       y       z     vdW  Elec       q    Type
REMARK                         _______ _______ _______ _____ _____    ______ ____
ROOT
ATOM      1  C   UNL     1     150.040 169.433 191.866  0.00  0.00    -0.026 C 
ATOM      2  C   UNL     1     150.554 168.101 192.455  0.00  0.00    -0.045 C 
ATOM      3  C   UNL     1     151.848 167.586 191.808  0.00  0.00    -0.026 C 
ATOM      4  C   UNL     1     151.702 167.129 190.346  0.00  0.00    +0.065 C 
ATOM      5  C   UNL     1     150.839 165.873 190.209  0.00  0.00    +0.011 C 
ATOM      6  C   UNL     1     150.792 165.410 188.752  0.00  0.00    +0.111 C 
ATOM      7  C   UNL     1     152.211 165.261 188.199  0.00  0.00    +0.040 C 
ATOM      8  C   UNL     1     153.064 166.516 188.461  0.00  0.00    +0.190 C 
ATOM      9  O   UNL     1     153.019 166.849 189.854  0.00  0.00    -0.344 OA
ATOM     10  O   UNL     1     150.094 166.379 187.939  0.00  0.00    -0.458 OA
ATOM     11  C   UNL     1     148.739 166.348 188.042  0.00  0.00    +0.332 C 
ATOM     12  O   UNL     1     148.074 165.559 188.690  0.00  0.00    -0.246 OA
ATOM     13  C   UNL     1     148.194 167.466 187.253  0.00  0.00    +0.021 C 
ATOM     14  C   UNL     1     147.426 168.444 187.776  0.00  0.00    -0.066 C 
ATOM     15  C   UNL     1     147.061 168.560 189.247  0.00  0.00    -0.028 C 
ATOM     16  C   UNL     1     147.599 169.847 189.889  0.00  0.00    -0.031 C 
ATOM     17  C   UNL     1     147.551 169.789 191.392  0.00  0.00    -0.087 C 
ATOM     18  C   UNL     1     148.586 169.632 192.235  0.00  0.00    -0.085 C 
ATOM     19  H   UNL     1     150.136 169.397 190.779  0.00  0.00    +0.034 HD
ATOM     20  H   UNL     1     149.780 167.329 192.378  0.00  0.00    +0.027 HD
ATOM     21  H   UNL     1     150.736 168.230 193.531  0.00  0.00    +0.027 HD
ATOM     22  H   UNL     1     152.229 166.745 192.403  0.00  0.00    +0.029 HD
ATOM     23  H   UNL     1     152.631 168.352 191.871  0.00  0.00    +0.029 HD
ATOM     24  H   UNL     1     151.284 167.951 189.757  0.00  0.00    +0.060 HD
ATOM     25  H   UNL     1     149.829 166.069 190.576  0.00  0.00    +0.033 HD
ATOM     26  H   UNL     1     151.267 165.066 190.817  0.00  0.00    +0.033 HD
ATOM     27  H   UNL     1     150.286 164.439 188.673  0.00  0.00    +0.074 HD
ATOM     28  H   UNL     1     152.152 165.066 187.121  0.00  0.00    +0.035 HD
ATOM     29  H   UNL     1     152.676 164.395 188.686  0.00  0.00    +0.035 HD
ATOM     30  H   UNL     1     148.457 167.449 186.202  0.00  0.00    +0.069 HD
ATOM     31  H   UNL     1     145.968 168.526 189.345  0.00  0.00    +0.031 HD
ATOM     32  H   UNL     1     147.438 167.701 189.813  0.00  0.00    +0.031 HD
ATOM     33  H   UNL     1     148.613 170.055 189.531  0.00  0.00    +0.031 HD
ATOM     34  H   UNL     1     146.992 170.703 189.566  0.00  0.00    +0.031 HD
ATOM     35  H   UNL     1     146.557 169.901 191.828  0.00  0.00    +0.057 HD
ATOM     36  H   UNL     1     148.368 169.629 193.304  0.00  0.00    +0.057 HD
ENDROOT
BRANCH   8  37
ATOM     37  C   UNL     1     154.568 166.235 188.121  0.00  0.00    +0.087 C 
ATOM     38  C   UNL     1     154.882 164.737 188.038  0.00  0.00    +0.026 C 
ATOM     39  S   UNL     1     155.672 164.315 189.620  0.00  0.00    -0.066 S 
ATOM     40  C   UNL     1     156.083 165.972 189.976  0.00  0.00    +0.272 C 
ATOM     41  O   UNL     1     156.808 166.328 190.889  0.00  0.00    -0.263 OA
ATOM     42  N   UNL     1     155.507 166.809 189.069  0.00  0.00    -0.298 N 
ATOM     43  H   UNL     1     154.782 166.687 187.145  0.00  0.00    +0.056 HD
ATOM     44  H   UNL     1     154.012 164.105 187.844  0.00  0.00    +0.040 HD
ATOM     45  H   UNL     1     155.619 164.554 187.247  0.00  0.00    +0.040 HD
ATOM     46  H   UNL     1     155.697 167.798 189.154  0.00  0.00    +0.150 HD
ENDBRANCH   8  37
BRANCH   1  47
ATOM     47  C   UNL     1     150.862 170.625 192.358  0.00  0.00    -0.059 C 
ATOM     48  H   UNL     1     150.642 171.522 191.768  0.00  0.00    +0.024 HD
ATOM     49  H   UNL     1     150.648 170.856 193.407  0.00  0.00    +0.024 HD
ATOM     50  H   UNL     1     151.935 170.430 192.267  0.00  0.00    +0.024 HD
ENDBRANCH   1  47
BRANCH  14  51
ATOM     51  C   UNL     1     146.863 169.516 186.878  0.00  0.00    -0.043 C 
ATOM     52  H   UNL     1     146.930 170.511 187.332  0.00  0.00    +0.027 HD
ATOM     53  H   UNL     1     145.808 169.323 186.660  0.00  0.00    +0.027 HD
ATOM     54  H   UNL     1     147.416 169.548 185.933  0.00  0.00    +0.027 HD
ENDBRANCH  14  51
BRANCH   8  55
ATOM     55  O   UNL     1     152.613 167.614 187.675  0.00  0.00    -0.363 OA
ATOM     56  H   UNL     1     151.647 167.680 187.775  0.00  0.00    +0.213 HD
ENDBRANCH   8  55
TORSDOF 4
ENDMDL
MODEL 6
REMARK VINA RESULT:      -6.1      3.796      6.483
REMARK  Name = Latrunculin B_conf3
REMARK  4 active torsions:
REMARK  status: ('A' for Active; 'I' for Inactive)
REMARK    1  A    between atoms: C_1  and  C_2
REMARK    2  A    between atoms: C_9  and  C_11
REMARK    3  A    between atoms: C_9  and  O_17
REMARK    4  A    between atoms: C_22  and  C_27
REMARK                            x       y       z     vdW  Elec       q    Type
REMARK                         _______ _______ _______ _____ _____    ______ ____
ROOT
ATOM      1  C   UNL     1     149.060 171.220 192.035  0.00  0.00    -0.026 C 
ATOM      2  C   UNL     1     148.305 171.716 190.784  0.00  0.00    -0.045 C 
ATOM      3  C   UNL     1     146.824 171.309 190.740  0.00  0.00    -0.026 C 
ATOM      4  C   UNL     1     146.573 169.803 190.557  0.00  0.00    +0.065 C 
ATOM      5  C   UNL     1     147.008 169.301 189.179  0.00  0.00    +0.011 C 
ATOM      6  C   UNL     1     146.663 167.820 189.012  0.00  0.00    +0.111 C 
ATOM      7  C   UNL     1     145.185 167.583 189.329  0.00  0.00    +0.040 C 
ATOM      8  C   UNL     1     144.782 168.203 190.680  0.00  0.00    +0.190 C 
ATOM      9  O   UNL     1     145.165 169.583 190.712  0.00  0.00    -0.344 OA
ATOM     10  O   UNL     1     147.450 167.016 189.919  0.00  0.00    -0.458 OA
ATOM     11  C   UNL     1     148.737 166.807 189.535  0.00  0.00    +0.332 C 
ATOM     12  O   UNL     1     149.257 167.172 188.495  0.00  0.00    -0.246 OA
ATOM     13  C   UNL     1     149.426 166.082 190.616  0.00  0.00    +0.021 C 
ATOM     14  C   UNL     1     150.518 166.551 191.252  0.00  0.00    -0.066 C 
ATOM     15  C   UNL     1     151.157 167.905 190.984  0.00  0.00    -0.028 C 
ATOM     16  C   UNL     1     151.127 168.825 192.213  0.00  0.00    -0.031 C 
ATOM     17  C   UNL     1     151.423 170.256 191.851  0.00  0.00    -0.087 C 
ATOM     18  C   UNL     1     150.553 171.279 191.793  0.00  0.00    -0.085 C 
ATOM     19  H   UNL     1     148.766 170.188 192.238  0.00  0.00    +0.034 HD
ATOM     20  H   UNL     1     148.803 171.360 189.875  0.00  0.00    +0.027 HD
ATOM     21  H   UNL     1     148.360 172.812 190.740  0.00  0.00    +0.027 HD
ATOM     22  H   UNL     1     146.333 171.850 189.920  0.00  0.00    +0.029 HD
ATOM     23  H   UNL     1     146.313 171.652 191.649  0.00  0.00    +0.029 HD
ATOM     24  H   UNL     1     147.094 169.256 191.349  0.00  0.00    +0.060 HD
ATOM     25  H   UNL     1     148.082 169.456 189.043  0.00  0.00    +0.033 HD
ATOM     26  H   UNL     1     146.486 169.869 188.399  0.00  0.00    +0.033 HD
ATOM     27  H   UNL     1     146.852 167.494 187.982  0.00  0.00    +0.074 HD
ATOM     28  H   UNL     1     144.994 166.503 189.341  0.00  0.00    +0.035 HD
ATOM     29  H   UNL     1     144.589 168.035 188.528  0.00  0.00    +0.035 HD
ATOM     30  H   UNL     1     148.986 165.124 190.870  0.00  0.00    +0.069 HD
ATOM     31  H   UNL     1     152.195 167.750 190.663  0.00  0.00    +0.031 HD
ATOM     32  H   UNL     1     150.660 168.414 190.151  0.00  0.00    +0.031 HD
ATOM     33  H   UNL     1     150.166 168.736 192.730  0.00  0.00    +0.031 HD
ATOM     34  H   UNL     1     151.883 168.498 192.939  0.00  0.00    +0.031 HD
ATOM     35  H   UNL     1     152.469 170.469 191.628  0.00  0.00    +0.057 HD
ATOM     36  H   UNL     1     150.947 172.260 191.528  0.00  0.00    +0.057 HD
ENDROOT
BRANCH   8  37
ATOM     37  C   UNL     1     143.224 168.172 190.851  0.00  0.00    +0.087 C 
ATOM     38  C   UNL     1     142.482 168.356 189.522  0.00  0.00    +0.026 C 
ATOM     39  S   UNL     1     141.951 170.095 189.495  0.00  0.00    -0.066 S 
ATOM     40  C   UNL     1     142.117 170.280 191.221  0.00  0.00    +0.272 C 
ATOM     41  O   UNL     1     141.731 171.246 191.857  0.00  0.00    -0.263 OA
ATOM     42  N   UNL     1     142.707 169.178 191.762  0.00  0.00    -0.298 N 
ATOM     43  H   UNL     1     142.951 167.194 191.266  0.00  0.00    +0.056 HD
ATOM     44  H   UNL     1     143.075 168.105 188.639  0.00  0.00    +0.040 HD
ATOM     45  H   UNL     1     141.577 167.739 189.512  0.00  0.00    +0.040 HD
ATOM     46  H   UNL     1     142.832 169.155 192.765  0.00  0.00    +0.150 HD
ENDBRANCH   8  37
BRANCH   1  47
ATOM     47  C   UNL     1     148.709 172.046 193.274  0.00  0.00    -0.059 C 
ATOM     48  H   UNL     1     147.923 171.557 193.860  0.00  0.00    +0.024 HD
ATOM     49  H   UNL     1     149.577 172.181 193.927  0.00  0.00    +0.024 HD
ATOM     50  H   UNL     1     148.338 173.037 192.996  0.00  0.00    +0.024 HD
ENDBRANCH   1  47
BRANCH  14  51
ATOM     51  C   UNL     1     151.192 165.710 192.305  0.00  0.00    -0.043 C 
ATOM     52  H   UNL     1     151.620 166.320 193.108  0.00  0.00    +0.027 HD
ATOM     53  H   UNL     1     152.005 165.121 191.869  0.00  0.00    +0.027 HD
ATOM     54  H   UNL     1     150.470 165.026 192.763  0.00  0.00    +0.027 HD
ENDBRANCH  14  51
BRANCH   8  55
ATOM     55  O   UNL     1     145.376 167.498 191.764  0.00  0.00    -0.363 OA
ATOM     56  H   UNL     1     145.881 166.751 191.398  0.00  0.00    +0.213 HD
ENDBRANCH   8  55
TORSDOF 4
ENDMDL
MODEL 7
REMARK VINA RESULT:      -6.0      3.321      7.171
REMARK  Name = Latrunculin B_conf3
REMARK  4 active torsions:
REMARK  status: ('A' for Active; 'I' for Inactive)
REMARK    1  A    between atoms: C_1  and  C_2
REMARK    2  A    between atoms: C_9  and  C_11
REMARK    3  A    between atoms: C_9  and  O_17
REMARK    4  A    between atoms: C_22  and  C_27
REMARK                            x       y       z     vdW  Elec       q    Type
REMARK                         _______ _______ _______ _____ _____    ______ ____
ROOT
ATOM      1  C   UNL     1     151.698 166.460 192.993  0.00  0.00    -0.026 C 
ATOM      2  C   UNL     1     151.219 165.858 191.654  0.00  0.00    -0.045 C 
ATOM      3  C   UNL     1     150.490 166.856 190.742  0.00  0.00    -0.026 C 
ATOM      4  C   UNL     1     149.123 167.329 191.263  0.00  0.00    +0.065 C 
ATOM      5  C   UNL     1     148.084 166.206 191.282  0.00  0.00    +0.011 C 
ATOM      6  C   UNL     1     146.722 166.741 191.727  0.00  0.00    +0.111 C 
ATOM      7  C   UNL     1     146.325 167.950 190.876  0.00  0.00    +0.040 C 
ATOM      8  C   UNL     1     147.452 168.998 190.809  0.00  0.00    +0.190 C 
ATOM      9  O   UNL     1     148.671 168.371 190.389  0.00  0.00    -0.344 OA
ATOM     10  O   UNL     1     146.775 167.164 193.108  0.00  0.00    -0.458 OA
ATOM     11  C   UNL     1     146.730 166.158 194.020  0.00  0.00    +0.332 C 
ATOM     12  O   UNL     1     146.589 164.970 193.790  0.00  0.00    -0.246 OA
ATOM     13  C   UNL     1     146.915 166.744 195.359  0.00  0.00    +0.021 C 
ATOM     14  C   UNL     1     147.917 166.398 196.193  0.00  0.00    -0.066 C 
ATOM     15  C   UNL     1     149.016 165.404 195.854  0.00  0.00    -0.028 C 
ATOM     16  C   UNL     1     150.412 166.043 195.859  0.00  0.00    -0.031 C 
ATOM     17  C   UNL     1     151.434 165.167 195.186  0.00  0.00    -0.087 C 
ATOM     18  C   UNL     1     151.996 165.350 193.979  0.00  0.00    -0.085 C 
ATOM     19  H   UNL     1     150.908 167.098 193.395  0.00  0.00    +0.034 HD
ATOM     20  H   UNL     1     150.568 164.996 191.838  0.00  0.00    +0.027 HD
ATOM     21  H   UNL     1     152.086 165.463 191.107  0.00  0.00    +0.027 HD
ATOM     22  H   UNL     1     150.351 166.394 189.755  0.00  0.00    +0.029 HD
ATOM     23  H   UNL     1     151.128 167.729 190.556  0.00  0.00    +0.029 HD
ATOM     24  H   UNL     1     149.251 167.753 192.264  0.00  0.00    +0.060 HD
ATOM     25  H   UNL     1     148.409 165.403 191.948  0.00  0.00    +0.033 HD
ATOM     26  H   UNL     1     147.979 165.786 190.274  0.00  0.00    +0.033 HD
ATOM     27  H   UNL     1     145.950 165.970 191.613  0.00  0.00    +0.074 HD
ATOM     28  H   UNL     1     145.420 168.401 191.301  0.00  0.00    +0.035 HD
ATOM     29  H   UNL     1     146.097 167.594 189.865  0.00  0.00    +0.035 HD
ATOM     30  H   UNL     1     146.176 167.488 195.634  0.00  0.00    +0.069 HD
ATOM     31  H   UNL     1     148.984 164.580 196.579  0.00  0.00    +0.031 HD
ATOM     32  H   UNL     1     148.843 164.947 194.875  0.00  0.00    +0.031 HD
ATOM     33  H   UNL     1     150.376 167.037 195.400  0.00  0.00    +0.031 HD
ATOM     34  H   UNL     1     150.740 166.209 196.894  0.00  0.00    +0.031 HD
ATOM     35  H   UNL     1     151.752 164.299 195.764  0.00  0.00    +0.057 HD
ATOM     36  H   UNL     1     152.738 164.620 193.653  0.00  0.00    +0.057 HD
ENDROOT
BRANCH   8  37
ATOM     37  C   UNL     1     147.121 170.086 189.730  0.00  0.00    +0.087 C 
ATOM     38  C   UNL     1     145.649 170.514 189.758  0.00  0.00    +0.026 C 
ATOM     39  S   UNL     1     144.856 169.621 188.386  0.00  0.00    -0.066 S 
ATOM     40  C   UNL     1     146.368 169.308 187.578  0.00  0.00    +0.272 C 
ATOM     41  O   UNL     1     146.474 168.849 186.453  0.00  0.00    -0.263 OA
ATOM     42  N   UNL     1     147.414 169.679 188.367  0.00  0.00    -0.298 N 
ATOM     43  H   UNL     1     147.740 170.967 189.941  0.00  0.00    +0.056 HD
ATOM     44  H   UNL     1     145.143 170.321 190.706  0.00  0.00    +0.040 HD
ATOM     45  H   UNL     1     145.568 171.584 189.539  0.00  0.00    +0.040 HD
ATOM     46  H   UNL     1     148.347 169.573 187.994  0.00  0.00    +0.150 HD
ENDBRANCH   8  37
BRANCH   1  47
ATOM     47  C   UNL     1     152.942 167.332 192.811  0.00  0.00    -0.059 C 
ATOM     48  H   UNL     1     152.865 168.250 193.403  0.00  0.00    +0.024 HD
ATOM     49  H   UNL     1     153.850 166.807 193.125  0.00  0.00    +0.024 HD
ATOM     50  H   UNL     1     153.067 167.627 191.765  0.00  0.00    +0.024 HD
ENDBRANCH   1  47
BRANCH  14  51
ATOM     51  C   UNL     1     147.991 167.009 197.569  0.00  0.00    -0.043 C 
ATOM     52  H   UNL     1     146.999 167.206 197.987  0.00  0.00    +0.027 HD
ATOM     53  H   UNL     1     148.534 167.959 197.542  0.00  0.00    +0.027 HD
ATOM     54  H   UNL     1     148.507 166.330 198.257  0.00  0.00    +0.027 HD
ENDBRANCH  14  51
BRANCH   8  55
ATOM     55  O   UNL     1     147.632 169.638 192.067  0.00  0.00    -0.363 OA
ATOM     56  H   UNL     1     146.882 170.242 192.208  0.00  0.00    +0.213 HD
ENDBRANCH   8  55
TORSDOF 4
ENDMDL
MODEL 8
REMARK VINA RESULT:      -6.0      2.092      3.650
REMARK  Name = Latrunculin B_conf3
REMARK  4 active torsions:
REMARK  status: ('A' for Active; 'I' for Inactive)
REMARK    1  A    between atoms: C_1  and  C_2
REMARK    2  A    between atoms: C_9  and  C_11
REMARK    3  A    between atoms: C_9  and  O_17
REMARK    4  A    between atoms: C_22  and  C_27
REMARK                            x       y       z     vdW  Elec       q    Type
REMARK                         _______ _______ _______ _____ _____    ______ ____
ROOT
ATOM      1  C   UNL     1     149.872 166.340 187.816  0.00  0.00    -0.026 C 
ATOM      2  C   UNL     1     150.920 166.738 188.879  0.00  0.00    -0.045 C 
ATOM      3  C   UNL     1     150.682 166.111 190.261  0.00  0.00    -0.026 C 
ATOM      4  C   UNL     1     149.431 166.620 190.995  0.00  0.00    +0.065 C 
ATOM      5  C   UNL     1     149.551 168.089 191.407  0.00  0.00    +0.011 C 
ATOM      6  C   UNL     1     148.322 168.526 192.205  0.00  0.00    +0.111 C 
ATOM      7  C   UNL     1     148.079 167.564 193.371  0.00  0.00    +0.040 C 
ATOM      8  C   UNL     1     148.074 166.095 192.910  0.00  0.00    +0.190 C 
ATOM      9  O   UNL     1     149.269 165.816 192.170  0.00  0.00    -0.344 OA
ATOM     10  O   UNL     1     147.147 168.516 191.364  0.00  0.00    -0.458 OA
ATOM     11  C   UNL     1     147.034 169.574 190.520  0.00  0.00    +0.332 C 
ATOM     12  O   UNL     1     147.778 170.537 190.453  0.00  0.00    -0.246 OA
ATOM     13  C   UNL     1     145.860 169.351 189.658  0.00  0.00    +0.021 C 
ATOM     14  C   UNL     1     145.923 169.289 188.313  0.00  0.00    -0.066 C 
ATOM     15  C   UNL     1     147.207 169.388 187.504  0.00  0.00    -0.028 C 
ATOM     16  C   UNL     1     147.497 168.114 186.698  0.00  0.00    -0.031 C 
ATOM     17  C   UNL     1     148.916 168.075 186.197  0.00  0.00    -0.087 C 
ATOM     18  C   UNL     1     149.922 167.311 186.657  0.00  0.00    -0.085 C 
ATOM     19  H   UNL     1     148.881 166.370 188.272  0.00  0.00    +0.034 HD
ATOM     20  H   UNL     1     150.962 167.828 188.980  0.00  0.00    +0.027 HD
ATOM     21  H   UNL     1     151.917 166.435 188.532  0.00  0.00    +0.027 HD
ATOM     22  H   UNL     1     151.562 166.301 190.890  0.00  0.00    +0.029 HD
ATOM     23  H   UNL     1     150.630 165.018 190.174  0.00  0.00    +0.029 HD
ATOM     24  H   UNL     1     148.556 166.470 190.355  0.00  0.00    +0.060 HD
ATOM     25  H   UNL     1     149.671 168.719 190.523  0.00  0.00    +0.033 HD
ATOM     26  H   UNL     1     150.440 168.221 192.037  0.00  0.00    +0.033 HD
ATOM     27  H   UNL     1     148.467 169.534 192.613  0.00  0.00    +0.074 HD
ATOM     28  H   UNL     1     147.120 167.813 193.841  0.00  0.00    +0.035 HD
ATOM     29  H   UNL     1     148.878 167.713 194.107  0.00  0.00    +0.035 HD
ATOM     30  H   UNL     1     144.923 169.236 190.191  0.00  0.00    +0.069 HD
ATOM     31  H   UNL     1     147.133 170.247 186.824  0.00  0.00    +0.031 HD
ATOM     32  H   UNL     1     148.064 169.596 188.154  0.00  0.00    +0.031 HD
ATOM     33  H   UNL     1     147.262 167.226 187.294  0.00  0.00    +0.031 HD
ATOM     34  H   UNL     1     146.831 168.068 185.827  0.00  0.00    +0.031 HD
ATOM     35  H   UNL     1     149.128 168.740 185.359  0.00  0.00    +0.057 HD
ATOM     36  H   UNL     1     150.889 167.401 186.160  0.00  0.00    +0.057 HD
ENDROOT
BRANCH   8  37
ATOM     37  C   UNL     1     148.086 165.135 194.150  0.00  0.00    +0.087 C 
ATOM     38  C   UNL     1     147.041 165.519 195.202  0.00  0.00    +0.026 C 
ATOM     39  S   UNL     1     147.957 166.404 196.500  0.00  0.00    -0.066 S 
ATOM     40  C   UNL     1     149.496 165.751 196.004  0.00  0.00    +0.272 C 
ATOM     41  O   UNL     1     150.535 165.866 196.630  0.00  0.00    -0.263 OA
ATOM     42  N   UNL     1     149.365 165.066 194.834  0.00  0.00    -0.298 N 
ATOM     43  H   UNL     1     147.860 164.123 193.792  0.00  0.00    +0.056 HD
ATOM     44  H   UNL     1     146.214 166.120 194.816  0.00  0.00    +0.040 HD
ATOM     45  H   UNL     1     146.622 164.615 195.659  0.00  0.00    +0.040 HD
ATOM     46  H   UNL     1     150.188 164.615 194.458  0.00  0.00    +0.150 HD
ENDBRANCH   8  37
BRANCH   1  47
ATOM     47  C   UNL     1     150.097 164.917 187.303  0.00  0.00    -0.059 C 
ATOM     48  H   UNL     1     149.711 164.803 186.284  0.00  0.00    +0.024 HD
ATOM     49  H   UNL     1     151.161 164.658 187.288  0.00  0.00    +0.024 HD
ATOM     50  H   UNL     1     149.581 164.184 187.931  0.00  0.00    +0.024 HD
ENDBRANCH   1  47
BRANCH  14  51
ATOM     51  C   UNL     1     144.659 169.116 187.510  0.00  0.00    -0.043 C 
ATOM     52  H   UNL     1     143.882 169.828 187.807  0.00  0.00    +0.027 HD
ATOM     53  H   UNL     1     144.253 168.109 187.640  0.00  0.00    +0.027 HD
ATOM     54  H   UNL     1     144.862 169.277 186.446  0.00  0.00    +0.027 HD
ENDBRANCH  14  51
BRANCH   8  55
ATOM     55  O   UNL     1     146.925 165.810 192.120  0.00  0.00    -0.363 OA
ATOM     56  H   UNL     1     147.079 164.969 191.656  0.00  0.00    +0.213 HD
ENDBRANCH   8  55
TORSDOF 4
ENDMDL
MODEL 9
REMARK VINA RESULT:      -5.9      5.133      7.315
REMARK  Name = Latrunculin B_conf3
REMARK  4 active torsions:
REMARK  status: ('A' for Active; 'I' for Inactive)
REMARK    1  A    between atoms: C_1  and  C_2
REMARK    2  A    between atoms: C_9  and  C_11
REMARK    3  A    between atoms: C_9  and  O_17
REMARK    4  A    between atoms: C_22  and  C_27
REMARK                            x       y       z     vdW  Elec       q    Type
REMARK                         _______ _______ _______ _____ _____    ______ ____
ROOT
ATOM      1  C   UNL     1     150.260 165.554 186.441  0.00  0.00    -0.026 C 
ATOM      2  C   UNL     1     149.708 164.793 187.666  0.00  0.00    -0.045 C 
ATOM      3  C   UNL     1     149.434 165.684 188.888  0.00  0.00    -0.026 C 
ATOM      4  C   UNL     1     150.690 166.274 189.552  0.00  0.00    +0.065 C 
ATOM      5  C   UNL     1     151.559 165.204 190.215  0.00  0.00    +0.011 C 
ATOM      6  C   UNL     1     152.748 165.845 190.932  0.00  0.00    +0.111 C 
ATOM      7  C   UNL     1     152.263 166.941 191.884  0.00  0.00    +0.040 C 
ATOM      8  C   UNL     1     151.309 167.927 191.186  0.00  0.00    +0.190 C 
ATOM      9  O   UNL     1     150.248 167.203 190.549  0.00  0.00    -0.344 OA
ATOM     10  O   UNL     1     153.645 166.450 189.974  0.00  0.00    -0.458 OA
ATOM     11  C   UNL     1     154.453 165.580 189.312  0.00  0.00    +0.332 C 
ATOM     12  O   UNL     1     154.533 164.378 189.492  0.00  0.00    -0.246 OA
ATOM     13  C   UNL     1     155.208 166.336 188.299  0.00  0.00    +0.021 C 
ATOM     14  C   UNL     1     155.157 166.071 186.978  0.00  0.00    -0.066 C 
ATOM     15  C   UNL     1     154.281 164.999 186.347  0.00  0.00    -0.028 C 
ATOM     16  C   UNL     1     153.244 165.581 185.376  0.00  0.00    -0.031 C 
ATOM     17  C   UNL     1     152.168 164.584 185.039  0.00  0.00    -0.087 C 
ATOM     18  C   UNL     1     150.896 164.579 185.474  0.00  0.00    -0.085 C 
ATOM     19  H   UNL     1     151.011 166.270 186.780  0.00  0.00    +0.034 HD
ATOM     20  H   UNL     1     150.395 163.989 187.954  0.00  0.00    +0.027 HD
ATOM     21  H   UNL     1     148.769 164.295 187.388  0.00  0.00    +0.027 HD
ATOM     22  H   UNL     1     148.883 165.097 189.636  0.00  0.00    +0.029 HD
ATOM     23  H   UNL     1     148.754 166.499 188.613  0.00  0.00    +0.029 HD
ATOM     24  H   UNL     1     151.264 166.826 188.801  0.00  0.00    +0.060 HD
ATOM     25  H   UNL     1     151.910 164.487 189.468  0.00  0.00    +0.033 HD
ATOM     26  H   UNL     1     150.963 164.654 190.954  0.00  0.00    +0.033 HD
ATOM     27  H   UNL     1     153.295 165.095 191.517  0.00  0.00    +0.074 HD
ATOM     28  H   UNL     1     153.134 167.478 192.279  0.00  0.00    +0.035 HD
ATOM     29  H   UNL     1     151.742 166.458 192.720  0.00  0.00    +0.035 HD
ATOM     30  H   UNL     1     155.821 167.138 188.695  0.00  0.00    +0.069 HD
ATOM     31  H   UNL     1     154.923 164.284 185.817  0.00  0.00    +0.031 HD
ATOM     32  H   UNL     1     153.758 164.419 187.114  0.00  0.00    +0.031 HD
ATOM     33  H   UNL     1     152.817 166.504 185.785  0.00  0.00    +0.031 HD
ATOM     34  H   UNL     1     153.736 165.874 184.440  0.00  0.00    +0.031 HD
ATOM     35  H   UNL     1     152.470 163.791 184.354  0.00  0.00    +0.057 HD
ATOM     36  H   UNL     1     150.243 163.784 185.112  0.00  0.00    +0.057 HD
ENDROOT
BRANCH   8  37
ATOM     37  C   UNL     1     150.631 168.869 192.240  0.00  0.00    +0.087 C 
ATOM     38  C   UNL     1     149.153 168.535 192.465  0.00  0.00    +0.026 C 
ATOM     39  S   UNL     1     148.222 169.763 191.499  0.00  0.00    -0.066 S 
ATOM     40  C   UNL     1     149.570 170.866 191.408  0.00  0.00    +0.272 C 
ATOM     41  O   UNL     1     149.506 172.009 190.990  0.00  0.00    -0.263 OA
ATOM     42  N   UNL     1     150.696 170.280 191.902  0.00  0.00    -0.298 N 
ATOM     43  H   UNL     1     151.162 168.744 193.192  0.00  0.00    +0.056 HD
ATOM     44  H   UNL     1     148.875 167.515 192.187  0.00  0.00    +0.040 HD
ATOM     45  H   UNL     1     148.893 168.685 193.519  0.00  0.00    +0.040 HD
ATOM     46  H   UNL     1     151.542 170.834 191.929  0.00  0.00    +0.150 HD
ENDBRANCH   8  37
BRANCH   1  47
ATOM     47  C   UNL     1     149.164 166.346 185.725  0.00  0.00    -0.059 C 
ATOM     48  H   UNL     1     148.313 166.526 186.391  0.00  0.00    +0.024 HD
ATOM     49  H   UNL     1     149.530 167.319 185.381  0.00  0.00    +0.024 HD
ATOM     50  H   UNL     1     148.787 165.801 184.855  0.00  0.00    +0.024 HD
ENDBRANCH   1  47
BRANCH  14  51
ATOM     51  C   UNL     1     156.012 166.860 186.020  0.00  0.00    -0.043 C 
ATOM     52  H   UNL     1     156.618 166.212 185.378  0.00  0.00    +0.027 HD
ATOM     53  H   UNL     1     156.696 167.519 186.564  0.00  0.00    +0.027 HD
ATOM     54  H   UNL     1     155.382 167.473 185.366  0.00  0.00    +0.027 HD
ENDBRANCH  14  51
BRANCH   8  55
ATOM     55  O   UNL     1     152.003 168.726 190.235  0.00  0.00    -0.363 OA
ATOM     56  H   UNL     1     152.846 169.004 190.634  0.00  0.00    +0.213 HD
ENDBRANCH   8  55
TORSDOF 4
ENDMDL
MODEL 10
REMARK VINA RESULT:      -5.9      4.113      7.311
REMARK  Name = Latrunculin B_conf3
REMARK  4 active torsions:
REMARK  status: ('A' for Active; 'I' for Inactive)
REMARK    1  A    between atoms: C_1  and  C_2
REMARK    2  A    between atoms: C_9  and  C_11
REMARK    3  A    between atoms: C_9  and  O_17
REMARK    4  A    between atoms: C_22  and  C_27
REMARK                            x       y       z     vdW  Elec       q    Type
REMARK                         _______ _______ _______ _____ _____    ______ ____
ROOT
ATOM      1  C   UNL     1     148.837 171.370 192.264  0.00  0.00    -0.026 C 
ATOM      2  C   UNL     1     148.677 172.134 190.932  0.00  0.00    -0.045 C 
ATOM      3  C   UNL     1     147.245 172.612 190.650  0.00  0.00    -0.026 C 
ATOM      4  C   UNL     1     146.231 171.489 190.374  0.00  0.00    +0.065 C 
ATOM      5  C   UNL     1     146.511 170.758 189.060  0.00  0.00    +0.011 C 
ATOM      6  C   UNL     1     145.432 169.708 188.788  0.00  0.00    +0.111 C 
ATOM      7  C   UNL     1     144.043 170.346 188.868  0.00  0.00    +0.040 C 
ATOM      8  C   UNL     1     143.858 171.156 190.165  0.00  0.00    +0.190 C 
ATOM      9  O   UNL     1     144.933 172.093 190.306  0.00  0.00    -0.344 OA
ATOM     10  O   UNL     1     145.498 168.653 189.772  0.00  0.00    -0.458 OA
ATOM     11  C   UNL     1     146.493 167.747 189.580  0.00  0.00    +0.332 C 
ATOM     12  O   UNL     1     147.273 167.708 188.645  0.00  0.00    -0.246 OA
ATOM     13  C   UNL     1     146.497 166.820 190.724  0.00  0.00    +0.021 C 
ATOM     14  C   UNL     1     147.558 166.640 191.535  0.00  0.00    -0.066 C 
ATOM     15  C   UNL     1     148.871 167.398 191.418  0.00  0.00    -0.028 C 
ATOM     16  C   UNL     1     149.177 168.245 192.662  0.00  0.00    -0.031 C 
ATOM     17  C   UNL     1     150.266 169.252 192.404  0.00  0.00    -0.087 C 
ATOM     18  C   UNL     1     150.128 170.581 192.253  0.00  0.00    -0.085 C 
ATOM     19  H   UNL     1     147.995 170.685 192.381  0.00  0.00    +0.034 HD
ATOM     20  H   UNL     1     149.021 171.514 190.096  0.00  0.00    +0.027 HD
ATOM     21  H   UNL     1     149.337 173.012 190.939  0.00  0.00    +0.027 HD
ATOM     22  H   UNL     1     147.263 173.290 189.786  0.00  0.00    +0.029 HD
ATOM     23  H   UNL     1     146.883 173.228 191.483  0.00  0.00    +0.029 HD
ATOM     24  H   UNL     1     146.238 170.788 191.215  0.00  0.00    +0.060 HD
ATOM     25  H   UNL     1     147.496 170.286 189.094  0.00  0.00    +0.033 HD
ATOM     26  H   UNL     1     146.512 171.478 188.232  0.00  0.00    +0.033 HD
ATOM     27  H   UNL     1     145.557 169.278 187.786  0.00  0.00    +0.074 HD
ATOM     28  H   UNL     1     143.286 169.554 188.810  0.00  0.00    +0.035 HD
ATOM     29  H   UNL     1     143.922 171.009 188.003  0.00  0.00    +0.035 HD
ATOM     30  H   UNL     1     145.568 166.281 190.873  0.00  0.00    +0.069 HD
ATOM     31  H   UNL     1     149.683 166.678 191.252  0.00  0.00    +0.031 HD
ATOM     32  H   UNL     1     148.869 168.053 190.540  0.00  0.00    +0.031 HD
ATOM     33  H   UNL     1     148.264 168.731 193.024  0.00  0.00    +0.031 HD
ATOM     34  H   UNL     1     149.509 167.593 193.481  0.00  0.00    +0.031 HD
ATOM     35  H   UNL     1     151.274 168.839 192.349  0.00  0.00    +0.057 HD
ATOM     36  H   UNL     1     151.034 171.165 192.088  0.00  0.00    +0.057 HD
ENDROOT
BRANCH   8  37
ATOM     37  C   UNL     1     142.540 172.001 190.097  0.00  0.00    +0.087 C 
ATOM     38  C   UNL     1     142.805 173.510 190.137  0.00  0.00    +0.026 C 
ATOM     39  S   UNL     1     142.459 174.021 191.848  0.00  0.00    -0.066 S 
ATOM     40  C   UNL     1     141.508 172.600 192.190  0.00  0.00    +0.272 C 
ATOM     41  O   UNL     1     140.836 172.438 193.194  0.00  0.00    -0.263 OA
ATOM     42  N   UNL     1     141.594 171.713 191.160  0.00  0.00    -0.298 N 
ATOM     43  H   UNL     1     142.038 171.764 189.150  0.00  0.00    +0.056 HD
ATOM     44  H   UNL     1     143.814 173.797 189.830  0.00  0.00    +0.040 HD
ATOM     45  H   UNL     1     142.090 174.032 189.491  0.00  0.00    +0.040 HD
ATOM     46  H   UNL     1     141.059 170.858 191.230  0.00  0.00    +0.150 HD
ENDBRANCH   8  37
BRANCH   1  47
ATOM     47  C   UNL     1     148.826 172.317 193.466  0.00  0.00    -0.059 C 
ATOM     48  H   UNL     1     148.576 171.778 194.386  0.00  0.00    +0.024 HD
ATOM     49  H   UNL     1     149.801 172.793 193.612  0.00  0.00    +0.024 HD
ATOM     50  H   UNL     1     148.080 173.108 193.339  0.00  0.00    +0.024 HD
ENDBRANCH   1  47
BRANCH  14  51
ATOM     51  C   UNL     1     147.490 165.624 192.647  0.00  0.00    -0.043 C 
ATOM     52  H   UNL     1     147.850 166.029 193.598  0.00  0.00    +0.027 HD
ATOM     53  H   UNL     1     148.101 164.748 192.408  0.00  0.00    +0.027 HD
ATOM     54  H   UNL     1     146.456 165.298 192.799  0.00  0.00    +0.027 HD
ENDBRANCH  14  51
BRANCH   8  55
ATOM     55  O   UNL     1     143.796 170.299 191.300  0.00  0.00    -0.363 OA
ATOM     56  H   UNL     1     144.168 169.436 191.047  0.00  0.00    +0.213 HD
ENDBRANCH   8  55
TORSDOF 4
ENDMDL
