MODEL 1
REMARK VINA RESULT:      -5.4      0.000      0.000
REMARK  Name = Lobophorolide_conf3
REMARK  23 active torsions:
REMARK  status: ('A' for Active; 'I' for Inactive)
REMARK    1  A    between atoms: C_1  and  C_2
REMARK    2  A    between atoms: C_4  and  O_53
REMARK    3  A    between atoms: C_6  and  C_8
REMARK    4  A    between atoms: C_8  and  C_9
REMARK    5  A    between atoms: C_9  and  C_10
REMARK    6  A    between atoms: C_10  and  C_11
REMARK    7  A    between atoms: C_10  and  C_12
REMARK    8  A    between atoms: C_12  and  C_13
REMARK    9  A    between atoms: C_12  and  O_52
REMARK   10  A    between atoms: C_13  and  C_14
REMARK   11  A    between atoms: C_13  and  C_15
REMARK   12  A    between atoms: C_16  and  C_51
REMARK   13  A    between atoms: C_17  and  O_49
REMARK   14  A    between atoms: C_19  and  O_47
REMARK   15  A    between atoms: C_23  and  O_45
REMARK   16  A    between atoms: C_32  and  O_43
REMARK   17  A    between atoms: C_33  and  O_42
REMARK   18  A    between atoms: C_35  and  C_41
REMARK   19  A    between atoms: O_43  and  C_44
REMARK   20  A    between atoms: O_45  and  C_46
REMARK   21  A    between atoms: O_47  and  C_48
REMARK   22  A    between atoms: O_49  and  C_50
REMARK   23  A    between atoms: O_53  and  C_54
REMARK                            x       y       z     vdW  Elec       q    Type
REMARK                         _______ _______ _______ _____ _____    ______ ____
ROOT
ATOM      1  C   UNL     1     153.339 165.723 188.449  0.00  0.00    +0.113 C 
ATOM      2  C   UNL     1     152.897 165.271 187.019  0.00  0.00    +0.020 C 
ATOM      3  C   UNL     1     152.093 163.946 186.883  0.00  0.00    +0.067 C 
ATOM      4  C   UNL     1     152.761 162.701 187.514  0.00  0.00    +0.003 C 
ATOM      5  C   UNL     1     151.946 161.414 187.247  0.00  0.00    +0.094 C 
ATOM      6  C   UNL     1     152.803 160.152 187.391  0.00  0.00    +0.145 C 
ATOM      7  C   UNL     1     152.889 159.476 188.756  0.00  0.00    +0.083 C 
ATOM      8  O   UNL     1     152.037 158.967 187.728  0.00  0.00    -0.363 OA
ATOM      9  C   UNL     1     153.837 159.831 186.307  0.00  0.00    +0.094 C 
ATOM     10  C   UNL     1     155.279 159.955 186.826  0.00  0.00    +0.003 C 
ATOM     11  C   UNL     1     156.372 159.717 185.761  0.00  0.00    +0.065 C 
ATOM     12  C   UNL     1     156.323 158.370 185.021  0.00  0.00    -0.008 C 
ATOM     13  C   UNL     1     156.811 157.249 185.884  0.00  0.00    -0.083 C 
ATOM     14  C   UNL     1     157.605 157.504 186.934  0.00  0.00    -0.059 C 
ATOM     15  C   UNL     1     158.062 158.900 187.310  0.00  0.00    +0.080 C 
ATOM     16  O   UNL     1     157.687 159.877 186.328  0.00  0.00    -0.369 OA
ATOM     17  C   UNL     1     159.588 158.915 187.479  0.00  0.00    +0.006 C 
ATOM     18  C   UNL     1     160.235 160.243 187.935  0.00  0.00    +0.090 C 
ATOM     19  C   UNL     1     159.628 160.880 189.221  0.00  0.00    +0.100 C 
ATOM     20  C   UNL     1     158.427 161.772 189.019  0.00  0.00    -0.051 C 
ATOM     21  C   UNL     1     158.085 162.851 189.754  0.00  0.00    -0.052 C 
ATOM     22  C   UNL     1     156.950 163.663 189.324  0.00  0.00    -0.052 C 
ATOM     23  C   UNL     1     156.670 164.890 189.785  0.00  0.00    +0.023 C 
ATOM     24  C   UNL     1     155.556 165.726 189.312  0.00  0.00    +0.332 C 
ATOM     25  O   UNL     1     155.581 166.941 189.435  0.00  0.00    -0.246 OA
ATOM     26  O   UNL     1     154.527 164.981 188.827  0.00  0.00    -0.458 OA
ATOM     27  H   UNL     1     153.602 166.779 188.331  0.00  0.00    +0.074 HD
ATOM     28  H   UNL     1     152.235 166.071 186.657  0.00  0.00    +0.036 HD
ATOM     29  H   UNL     1     151.984 163.728 185.812  0.00  0.00    +0.060 HD
ATOM     30  H   UNL     1     152.858 162.826 188.598  0.00  0.00    +0.032 HD
ATOM     31  H   UNL     1     153.770 162.600 187.103  0.00  0.00    +0.032 HD
ATOM     32  H   UNL     1     151.530 161.453 186.233  0.00  0.00    +0.063 HD
ATOM     33  H   UNL     1     153.747 158.875 189.024  0.00  0.00    +0.059 HD
ATOM     34  H   UNL     1     152.421 159.959 189.607  0.00  0.00    +0.059 HD
ATOM     35  H   UNL     1     153.681 158.795 185.975  0.00  0.00    +0.063 HD
ATOM     36  H   UNL     1     155.419 159.268 187.666  0.00  0.00    +0.032 HD
ATOM     37  H   UNL     1     155.435 160.956 187.246  0.00  0.00    +0.032 HD
ATOM     38  H   UNL     1     156.279 160.509 185.008  0.00  0.00    +0.060 HD
ATOM     39  H   UNL     1     156.992 158.419 184.153  0.00  0.00    +0.033 HD
ATOM     40  H   UNL     1     155.324 158.154 184.638  0.00  0.00    +0.033 HD
ATOM     41  H   UNL     1     156.529 156.230 185.637  0.00  0.00    +0.057 HD
ATOM     42  H   UNL     1     157.934 156.685 187.570  0.00  0.00    +0.059 HD
ATOM     43  H   UNL     1     157.586 159.156 188.261  0.00  0.00    +0.064 HD
ATOM     44  H   UNL     1     159.870 158.140 188.205  0.00  0.00    +0.032 HD
ATOM     45  H   UNL     1     160.038 158.625 186.522  0.00  0.00    +0.032 HD
ATOM     46  H   UNL     1     161.271 159.984 188.202  0.00  0.00    +0.063 HD
ATOM     47  H   UNL     1     160.429 161.488 189.656  0.00  0.00    +0.066 HD
ATOM     48  H   UNL     1     157.860 161.566 188.116  0.00  0.00    +0.060 HD
ATOM     49  H   UNL     1     156.327 163.243 188.537  0.00  0.00    +0.062 HD
ATOM     50  H   UNL     1     157.296 165.392 190.511  0.00  0.00    +0.069 HD
ENDROOT
BRANCH  21  51
ATOM     51  C   UNL     1     158.819 163.263 191.005  0.00  0.00    -0.040 C 
ATOM     52  H   UNL     1     159.557 164.052 190.829  0.00  0.00    +0.028 HD
ATOM     53  H   UNL     1     158.112 163.634 191.757  0.00  0.00    +0.028 HD
ATOM     54  H   UNL     1     159.377 162.422 191.434  0.00  0.00    +0.028 HD
ENDBRANCH  21  51
BRANCH   2  55
ATOM     55  C   UNL     1     154.099 165.259 186.061  0.00  0.00    -0.057 C 
ATOM     56  H   UNL     1     154.658 166.201 186.133  0.00  0.00    +0.023 HD
ATOM     57  H   UNL     1     154.793 164.442 186.275  0.00  0.00    +0.023 HD
ATOM     58  H   UNL     1     153.765 165.153 185.023  0.00  0.00    +0.023 HD
ENDBRANCH   2  55
BRANCH   1  59
ATOM     59  C   UNL     1     152.272 165.614 189.578  0.00  0.00    +0.020 C 
ATOM     60  H   UNL     1     151.364 165.220 189.110  0.00  0.00    +0.036 HD
BRANCH  59  61
ATOM     61  C   UNL     1     152.587 164.539 190.631  0.00  0.00    -0.057 C 
ATOM     62  H   UNL     1     152.215 163.559 190.310  0.00  0.00    +0.023 HD
ATOM     63  H   UNL     1     153.669 164.432 190.767  0.00  0.00    +0.023 HD
ATOM     64  H   UNL     1     152.148 164.770 191.604  0.00  0.00    +0.023 HD
ENDBRANCH  59  61
BRANCH  59  65
ATOM     65  C   UNL     1     151.912 166.981 190.230  0.00  0.00    +0.064 C 
ATOM     66  H   UNL     1     152.426 167.094 191.189  0.00  0.00    +0.060 HD
BRANCH  65  67
ATOM     67  C   UNL     1     150.402 167.316 190.460  0.00  0.00    -0.017 C 
ATOM     68  H   UNL     1     150.229 168.333 190.105  0.00  0.00    +0.032 HD
BRANCH  67  69
ATOM     69  C   UNL     1     149.489 166.366 189.681  0.00  0.00    -0.060 C 
ATOM     70  H   UNL     1     148.702 165.945 190.312  0.00  0.00    +0.023 HD
ATOM     71  H   UNL     1     150.058 165.536 189.249  0.00  0.00    +0.023 HD
ATOM     72  H   UNL     1     148.964 166.882 188.876  0.00  0.00    +0.023 HD
ENDBRANCH  67  69
BRANCH  67  73
ATOM     73  C   UNL     1     150.079 167.305 191.979  0.00  0.00    -0.046 C 
ATOM     74  H   UNL     1     151.022 167.115 192.513  0.00  0.00    +0.027 HD
ATOM     75  H   UNL     1     149.753 168.305 192.294  0.00  0.00    +0.027 HD
BRANCH  73  76
ATOM     76  C   UNL     1     149.059 166.289 192.509  0.00  0.00    -0.026 C 
ATOM     77  H   UNL     1     148.080 166.753 192.677  0.00  0.00    +0.029 HD
ATOM     78  H   UNL     1     148.868 165.580 191.689  0.00  0.00    +0.029 HD
BRANCH  76  83
ATOM     79  C   UNL     1     148.557 166.172 195.854  0.00  0.00    +0.059 C 
ATOM     80  C   UNL     1     149.643 165.435 196.630  0.00  0.00    -0.000 C 
ATOM     81  C   UNL     1     150.934 165.313 195.811  0.00  0.00    +0.063 C 
ATOM     82  C   UNL     1     150.778 165.859 194.390  0.00  0.00    -0.000 C 
ATOM     83  C   UNL     1     149.459 165.441 193.732  0.00  0.00    +0.061 C 
ATOM     84  O   UNL     1     148.330 165.488 194.624  0.00  0.00    -0.373 OA
ATOM     85  H   UNL     1     148.849 167.209 195.649  0.00  0.00    +0.059 HD
ATOM     86  H   UNL     1     149.852 165.957 197.570  0.00  0.00    +0.032 HD
ATOM     87  H   UNL     1     149.281 164.433 196.898  0.00  0.00    +0.032 HD
ATOM     88  H   UNL     1     151.737 165.880 196.297  0.00  0.00    +0.060 HD
ATOM     89  H   UNL     1     150.830 166.952 194.440  0.00  0.00    +0.032 HD
ATOM     90  H   UNL     1     151.617 165.516 193.779  0.00  0.00    +0.032 HD
ATOM     91  H   UNL     1     149.542 164.395 193.414  0.00  0.00    +0.060 HD
BRANCH  79  92
ATOM     92  C   UNL     1     147.246 166.191 196.628  0.00  0.00    -0.039 C 
ATOM     93  H   UNL     1     146.902 165.179 196.856  0.00  0.00    +0.025 HD
ATOM     94  H   UNL     1     147.367 166.739 197.566  0.00  0.00    +0.025 HD
ATOM     95  H   UNL     1     146.463 166.709 196.060  0.00  0.00    +0.025 HD
ENDBRANCH  79  92
BRANCH  81  96
ATOM     96  O   UNL     1     151.344 163.941 195.722  0.00  0.00    -0.380 OA
BRANCH  96  97
ATOM     97  C   UNL     1     150.957 163.169 196.854  0.00  0.00    +0.037 C 
ATOM     98  H   UNL     1     151.846 162.843 197.406  0.00  0.00    +0.052 HD
ATOM     99  H   UNL     1     150.421 162.284 196.501  0.00  0.00    +0.052 HD
ATOM    100  H   UNL     1     150.293 163.736 197.517  0.00  0.00    +0.052 HD
ENDBRANCH  96  97
ENDBRANCH  81  96
ENDBRANCH  76  83
ENDBRANCH  73  76
ENDBRANCH  67  73
ENDBRANCH  65  67
BRANCH  65 101
ATOM    101  O   UNL     1     152.457 167.998 189.373  0.00  0.00    -0.391 OA
ATOM    102  H   UNL     1     152.211 167.748 188.458  0.00  0.00    +0.210 HD
ENDBRANCH  65 101
ENDBRANCH  59  65
ENDBRANCH   1  59
BRANCH  19 103
ATOM    103  O   UNL     1     159.305 159.866 190.172  0.00  0.00    -0.385 OA
ATOM    104  H   UNL     1     158.518 159.396 189.840  0.00  0.00    +0.210 HD
ENDBRANCH  19 103
BRANCH  18 105
ATOM    105  O   UNL     1     160.279 161.224 186.889  0.00  0.00    -0.377 OA
BRANCH 105 106
ATOM    106  C   UNL     1     161.175 160.898 185.836  0.00  0.00    +0.037 C 
ATOM    107  H   UNL     1     160.675 160.874 184.862  0.00  0.00    +0.052 HD
ATOM    108  H   UNL     1     161.957 161.662 185.805  0.00  0.00    +0.052 HD
ATOM    109  H   UNL     1     161.647 159.930 186.037  0.00  0.00    +0.052 HD
ENDBRANCH 105 106
ENDBRANCH  18 105
BRANCH   9 110
ATOM    110  O   UNL     1     153.687 160.716 185.186  0.00  0.00    -0.377 OA
BRANCH 110 111
ATOM    111  C   UNL     1     153.093 160.078 184.062  0.00  0.00    +0.037 C 
ATOM    112  H   UNL     1     152.724 159.087 184.341  0.00  0.00    +0.052 HD
ATOM    113  H   UNL     1     153.858 159.957 183.292  0.00  0.00    +0.052 HD
ATOM    114  H   UNL     1     152.277 160.680 183.650  0.00  0.00    +0.052 HD
ENDBRANCH 110 111
ENDBRANCH   9 110
BRANCH   5 115
ATOM    115  O   UNL     1     150.866 161.394 188.202  0.00  0.00    -0.377 OA
BRANCH 115 116
ATOM    116  C   UNL     1     149.622 161.010 187.630  0.00  0.00    +0.037 C 
ATOM    117  H   UNL     1     149.615 161.214 186.555  0.00  0.00    +0.052 HD
ATOM    118  H   UNL     1     149.416 159.951 187.805  0.00  0.00    +0.052 HD
ATOM    119  H   UNL     1     148.833 161.603 188.098  0.00  0.00    +0.052 HD
ENDBRANCH 115 116
ENDBRANCH   5 115
BRANCH   3 120
ATOM    120  O   UNL     1     150.779 164.131 187.437  0.00  0.00    -0.379 OA
BRANCH 120 121
ATOM    121  C   UNL     1     149.825 164.578 186.481  0.00  0.00    +0.037 C 
ATOM    122  H   UNL     1     149.326 163.701 186.061  0.00  0.00    +0.052 HD
ATOM    123  H   UNL     1     150.322 165.114 185.669  0.00  0.00    +0.052 HD
ATOM    124  H   UNL     1     149.069 165.216 186.947  0.00  0.00    +0.052 HD
ENDBRANCH 120 121
ENDBRANCH   3 120
TORSDOF 23
ENDMDL
MODEL 2
REMARK VINA RESULT:      -5.4      1.689      2.471
REMARK  Name = Lobophorolide_conf3
REMARK  23 active torsions:
REMARK  status: ('A' for Active; 'I' for Inactive)
REMARK    1  A    between atoms: C_1  and  C_2
REMARK    2  A    between atoms: C_4  and  O_53
REMARK    3  A    between atoms: C_6  and  C_8
REMARK    4  A    between atoms: C_8  and  C_9
REMARK    5  A    between atoms: C_9  and  C_10
REMARK    6  A    between atoms: C_10  and  C_11
REMARK    7  A    between atoms: C_10  and  C_12
REMARK    8  A    between atoms: C_12  and  C_13
REMARK    9  A    between atoms: C_12  and  O_52
REMARK   10  A    between atoms: C_13  and  C_14
REMARK   11  A    between atoms: C_13  and  C_15
REMARK   12  A    between atoms: C_16  and  C_51
REMARK   13  A    between atoms: C_17  and  O_49
REMARK   14  A    between atoms: C_19  and  O_47
REMARK   15  A    between atoms: C_23  and  O_45
REMARK   16  A    between atoms: C_32  and  O_43
REMARK   17  A    between atoms: C_33  and  O_42
REMARK   18  A    between atoms: C_35  and  C_41
REMARK   19  A    between atoms: O_43  and  C_44
REMARK   20  A    between atoms: O_45  and  C_46
REMARK   21  A    between atoms: O_47  and  C_48
REMARK   22  A    between atoms: O_49  and  C_50
REMARK   23  A    between atoms: O_53  and  C_54
REMARK                            x       y       z     vdW  Elec       q    Type
REMARK                         _______ _______ _______ _____ _____    ______ ____
ROOT
ATOM      1  C   UNL     1     154.091 166.438 189.265  0.00  0.00    +0.113 C 
ATOM      2  C   UNL     1     153.705 166.625 187.761  0.00  0.00    +0.020 C 
ATOM      3  C   UNL     1     152.765 165.572 187.107  0.00  0.00    +0.067 C 
ATOM      4  C   UNL     1     153.236 164.104 187.225  0.00  0.00    +0.003 C 
ATOM      5  C   UNL     1     152.299 163.137 186.464  0.00  0.00    +0.094 C 
ATOM      6  C   UNL     1     152.991 161.810 186.131  0.00  0.00    +0.145 C 
ATOM      7  C   UNL     1     152.897 160.663 187.132  0.00  0.00    +0.083 C 
ATOM      8  O   UNL     1     152.070 160.701 185.968  0.00  0.00    -0.363 OA
ATOM      9  C   UNL     1     154.057 161.788 185.031  0.00  0.00    +0.094 C 
ATOM     10  C   UNL     1     155.461 161.509 185.591  0.00  0.00    +0.003 C 
ATOM     11  C   UNL     1     156.594 161.546 184.542  0.00  0.00    +0.065 C 
ATOM     12  C   UNL     1     156.444 160.600 183.339  0.00  0.00    -0.008 C 
ATOM     13  C   UNL     1     156.734 159.181 183.715  0.00  0.00    -0.083 C 
ATOM     14  C   UNL     1     157.473 158.909 184.800  0.00  0.00    -0.059 C 
ATOM     15  C   UNL     1     158.061 159.983 185.696  0.00  0.00    +0.080 C 
ATOM     16  O   UNL     1     157.874 161.300 185.156  0.00  0.00    -0.369 OA
ATOM     17  C   UNL     1     159.562 159.726 185.892  0.00  0.00    +0.006 C 
ATOM     18  C   UNL     1     160.324 160.682 186.839  0.00  0.00    +0.090 C 
ATOM     19  C   UNL     1     159.701 160.860 188.257  0.00  0.00    +0.100 C 
ATOM     20  C   UNL     1     158.630 161.916 188.386  0.00  0.00    -0.051 C 
ATOM     21  C   UNL     1     158.363 162.672 189.472  0.00  0.00    -0.052 C 
ATOM     22  C   UNL     1     157.364 163.731 189.362  0.00  0.00    -0.052 C 
ATOM     23  C   UNL     1     157.196 164.719 190.253  0.00  0.00    +0.023 C 
ATOM     24  C   UNL     1     156.224 165.814 190.113  0.00  0.00    +0.332 C 
ATOM     25  O   UNL     1     156.381 166.876 190.695  0.00  0.00    -0.246 OA
ATOM     26  O   UNL     1     155.154 165.454 189.355  0.00  0.00    -0.458 OA
ATOM     27  H   UNL     1     154.483 167.413 189.568  0.00  0.00    +0.074 HD
ATOM     28  H   UNL     1     153.169 167.584 187.720  0.00  0.00    +0.036 HD
ATOM     29  H   UNL     1     152.710 165.793 186.032  0.00  0.00    +0.060 HD
ATOM     30  H   UNL     1     153.267 163.793 188.275  0.00  0.00    +0.032 HD
ATOM     31  H   UNL     1     154.254 164.030 186.829  0.00  0.00    +0.032 HD
ATOM     32  H   UNL     1     151.965 163.612 185.534  0.00  0.00    +0.063 HD
ATOM     33  H   UNL     1     153.658 159.895 187.167  0.00  0.00    +0.059 HD
ATOM     34  H   UNL     1     152.428 160.846 188.092  0.00  0.00    +0.059 HD
ATOM     35  H   UNL     1     153.806 160.985 184.322  0.00  0.00    +0.063 HD
ATOM     36  H   UNL     1     155.459 160.543 186.105  0.00  0.00    +0.032 HD
ATOM     37  H   UNL     1     155.702 162.245 186.367  0.00  0.00    +0.032 HD
ATOM     38  H   UNL     1     156.649 162.570 184.150  0.00  0.00    +0.060 HD
ATOM     39  H   UNL     1     157.176 160.883 182.572  0.00  0.00    +0.033 HD
ATOM     40  H   UNL     1     155.457 160.683 182.880  0.00  0.00    +0.033 HD
ATOM     41  H   UNL     1     156.354 158.380 183.088  0.00  0.00    +0.057 HD
ATOM     42  H   UNL     1     157.657 157.874 185.079  0.00  0.00    +0.059 HD
ATOM     43  H   UNL     1     157.549 159.922 186.660  0.00  0.00    +0.064 HD
ATOM     44  H   UNL     1     159.698 158.704 186.270  0.00  0.00    +0.032 HD
ATOM     45  H   UNL     1     160.043 159.762 184.908  0.00  0.00    +0.032 HD
ATOM     46  H   UNL     1     161.300 160.204 187.010  0.00  0.00    +0.063 HD
ATOM     47  H   UNL     1     160.534 161.144 188.911  0.00  0.00    +0.066 HD
ATOM     48  H   UNL     1     158.111 162.146 187.461  0.00  0.00    +0.060 HD
ATOM     49  H   UNL     1     156.756 163.729 188.460  0.00  0.00    +0.062 HD
ATOM     50  H   UNL     1     157.822 164.818 191.131  0.00  0.00    +0.069 HD
ENDROOT
BRANCH  21  51
ATOM     51  C   UNL     1     159.047 162.476 190.802  0.00  0.00    -0.040 C 
ATOM     52  H   UNL     1     158.433 161.924 191.522  0.00  0.00    +0.028 HD
ATOM     53  H   UNL     1     159.983 161.919 190.671  0.00  0.00    +0.028 HD
ATOM     54  H   UNL     1     159.274 163.437 191.277  0.00  0.00    +0.028 HD
ENDBRANCH  21  51
BRANCH   2  55
ATOM     55  C   UNL     1     154.965 166.814 186.900  0.00  0.00    -0.057 C 
ATOM     56  H   UNL     1     155.560 165.892 186.881  0.00  0.00    +0.023 HD
ATOM     57  H   UNL     1     154.726 167.080 185.867  0.00  0.00    +0.023 HD
ATOM     58  H   UNL     1     155.600 167.606 187.313  0.00  0.00    +0.023 HD
ENDBRANCH   2  55
BRANCH   1  59
ATOM     59  C   UNL     1     152.939 166.054 190.239  0.00  0.00    +0.020 C 
ATOM     60  H   UNL     1     152.021 166.039 189.644  0.00  0.00    +0.036 HD
BRANCH  59  61
ATOM     61  C   UNL     1     153.016 164.609 190.757  0.00  0.00    -0.057 C 
ATOM     62  H   UNL     1     152.756 164.562 191.820  0.00  0.00    +0.023 HD
ATOM     63  H   UNL     1     152.298 163.968 190.232  0.00  0.00    +0.023 HD
ATOM     64  H   UNL     1     154.010 164.174 190.627  0.00  0.00    +0.023 HD
ENDBRANCH  59  61
BRANCH  59  65
ATOM     65  C   UNL     1     152.734 167.078 191.395  0.00  0.00    +0.064 C 
ATOM     66  H   UNL     1     153.331 167.977 191.218  0.00  0.00    +0.060 HD
BRANCH  65  67
ATOM     67  C   UNL     1     153.011 166.605 192.860  0.00  0.00    -0.017 C 
ATOM     68  H   UNL     1     153.295 165.552 192.821  0.00  0.00    +0.032 HD
BRANCH  67  69
ATOM     69  C   UNL     1     154.155 167.395 193.499  0.00  0.00    -0.060 C 
ATOM     70  H   UNL     1     154.483 166.950 194.443  0.00  0.00    +0.023 HD
ATOM     71  H   UNL     1     153.859 168.430 193.698  0.00  0.00    +0.023 HD
ATOM     72  H   UNL     1     155.043 167.403 192.865  0.00  0.00    +0.023 HD
ENDBRANCH  67  69
BRANCH  67  73
ATOM     73  C   UNL     1     151.710 166.693 193.704  0.00  0.00    -0.046 C 
ATOM     74  H   UNL     1     151.950 167.257 194.616  0.00  0.00    +0.027 HD
ATOM     75  H   UNL     1     150.964 167.294 193.167  0.00  0.00    +0.027 HD
BRANCH  73  76
ATOM     76  C   UNL     1     151.032 165.392 194.152  0.00  0.00    -0.026 C 
ATOM     77  H   UNL     1     151.382 164.534 193.567  0.00  0.00    +0.029 HD
ATOM     78  H   UNL     1     151.403 165.179 195.166  0.00  0.00    +0.029 HD
BRANCH  76  83
ATOM     79  C   UNL     1     148.376 167.323 193.334  0.00  0.00    +0.059 C 
ATOM     80  C   UNL     1     147.119 167.050 194.153  0.00  0.00    -0.000 C 
ATOM     81  C   UNL     1     147.449 166.307 195.454  0.00  0.00    +0.063 C 
ATOM     82  C   UNL     1     148.929 165.931 195.553  0.00  0.00    -0.000 C 
ATOM     83  C   UNL     1     149.494 165.379 194.240  0.00  0.00    +0.061 C 
ATOM     84  O   UNL     1     149.031 166.084 193.074  0.00  0.00    -0.373 OA
ATOM     85  H   UNL     1     149.060 167.996 193.866  0.00  0.00    +0.059 HD
ATOM     86  H   UNL     1     146.611 167.991 194.386  0.00  0.00    +0.032 HD
ATOM     87  H   UNL     1     146.419 166.452 193.554  0.00  0.00    +0.032 HD
ATOM     88  H   UNL     1     147.210 166.943 196.315  0.00  0.00    +0.060 HD
ATOM     89  H   UNL     1     149.487 166.828 195.842  0.00  0.00    +0.032 HD
ATOM     90  H   UNL     1     149.059 165.191 196.347  0.00  0.00    +0.032 HD
ATOM     91  H   UNL     1     149.150 164.345 194.118  0.00  0.00    +0.060 HD
BRANCH  79  92
ATOM     92  C   UNL     1     148.029 167.960 191.994  0.00  0.00    -0.039 C 
ATOM     93  H   UNL     1     147.598 168.956 192.125  0.00  0.00    +0.025 HD
ATOM     94  H   UNL     1     148.924 168.044 191.372  0.00  0.00    +0.025 HD
ATOM     95  H   UNL     1     147.316 167.338 191.437  0.00  0.00    +0.025 HD
ENDBRANCH  79  92
BRANCH  81  96
ATOM     96  O   UNL     1     146.672 165.105 195.555  0.00  0.00    -0.380 OA
BRANCH  96  97
ATOM     97  C   UNL     1     145.522 165.112 194.717  0.00  0.00    +0.037 C 
ATOM     98  H   UNL     1     145.199 166.143 194.533  0.00  0.00    +0.052 HD
ATOM     99  H   UNL     1     144.717 164.582 195.233  0.00  0.00    +0.052 HD
ATOM    100  H   UNL     1     145.717 164.606 193.765  0.00  0.00    +0.052 HD
ENDBRANCH  96  97
ENDBRANCH  81  96
ENDBRANCH  76  83
ENDBRANCH  73  76
ENDBRANCH  67  73
ENDBRANCH  65  67
BRANCH  65 101
ATOM    101  O   UNL     1     151.361 167.500 191.328  0.00  0.00    -0.391 OA
ATOM    102  H   UNL     1     151.236 168.146 192.054  0.00  0.00    +0.210 HD
ENDBRANCH  65 101
ENDBRANCH  59  65
ENDBRANCH   1  59
BRANCH  19 103
ATOM    103  O   UNL     1     159.194 159.616 188.736  0.00  0.00    -0.385 OA
ATOM    104  H   UNL     1     159.309 159.608 189.704  0.00  0.00    +0.210 HD
ENDBRANCH  19 103
BRANCH  18 105
ATOM    105  O   UNL     1     160.557 161.971 186.252  0.00  0.00    -0.377 OA
BRANCH 105 106
ATOM    106  C   UNL     1     161.399 161.934 185.110  0.00  0.00    +0.037 C 
ATOM    107  H   UNL     1     161.631 160.909 184.801  0.00  0.00    +0.052 HD
ATOM    108  H   UNL     1     160.880 162.434 184.286  0.00  0.00    +0.052 HD
ATOM    109  H   UNL     1     162.326 162.481 185.315  0.00  0.00    +0.052 HD
ENDBRANCH 105 106
ENDBRANCH  18 105
BRANCH   9 110
ATOM    110  O   UNL     1     154.094 163.043 184.334  0.00  0.00    -0.377 OA
BRANCH 110 111
ATOM    111  C   UNL     1     153.513 162.964 183.037  0.00  0.00    +0.037 C 
ATOM    112  H   UNL     1     152.498 163.370 183.051  0.00  0.00    +0.052 HD
ATOM    113  H   UNL     1     153.460 161.911 182.749  0.00  0.00    +0.052 HD
ATOM    114  H   UNL     1     154.120 163.497 182.298  0.00  0.00    +0.052 HD
ENDBRANCH 110 111
ENDBRANCH   9 110
BRANCH   5 115
ATOM    115  O   UNL     1     151.156 162.903 187.313  0.00  0.00    -0.377 OA
BRANCH 115 116
ATOM    116  C   UNL     1     149.917 163.023 186.626  0.00  0.00    +0.037 C 
ATOM    117  H   UNL     1     149.147 162.420 187.117  0.00  0.00    +0.052 HD
ATOM    118  H   UNL     1     149.593 164.065 186.574  0.00  0.00    +0.052 HD
ATOM    119  H   UNL     1     150.053 162.648 185.609  0.00  0.00    +0.052 HD
ENDBRANCH 115 116
ENDBRANCH   5 115
BRANCH   3 120
ATOM    120  O   UNL     1     151.444 165.710 187.659  0.00  0.00    -0.379 OA
BRANCH 120 121
ATOM    121  C   UNL     1     150.709 166.788 187.094  0.00  0.00    +0.037 C 
ATOM    122  H   UNL     1     150.636 166.624 186.016  0.00  0.00    +0.052 HD
ATOM    123  H   UNL     1     151.230 167.735 187.264  0.00  0.00    +0.052 HD
ATOM    124  H   UNL     1     149.698 166.836 187.506  0.00  0.00    +0.052 HD
ENDBRANCH 120 121
ENDBRANCH   3 120
TORSDOF 23
ENDMDL
MODEL 3
REMARK VINA RESULT:      -5.3      2.198      3.370
REMARK  Name = Lobophorolide_conf3
REMARK  23 active torsions:
REMARK  status: ('A' for Active; 'I' for Inactive)
REMARK    1  A    between atoms: C_1  and  C_2
REMARK    2  A    between atoms: C_4  and  O_53
REMARK    3  A    between atoms: C_6  and  C_8
REMARK    4  A    between atoms: C_8  and  C_9
REMARK    5  A    between atoms: C_9  and  C_10
REMARK    6  A    between atoms: C_10  and  C_11
REMARK    7  A    between atoms: C_10  and  C_12
REMARK    8  A    between atoms: C_12  and  C_13
REMARK    9  A    between atoms: C_12  and  O_52
REMARK   10  A    between atoms: C_13  and  C_14
REMARK   11  A    between atoms: C_13  and  C_15
REMARK   12  A    between atoms: C_16  and  C_51
REMARK   13  A    between atoms: C_17  and  O_49
REMARK   14  A    between atoms: C_19  and  O_47
REMARK   15  A    between atoms: C_23  and  O_45
REMARK   16  A    between atoms: C_32  and  O_43
REMARK   17  A    between atoms: C_33  and  O_42
REMARK   18  A    between atoms: C_35  and  C_41
REMARK   19  A    between atoms: O_43  and  C_44
REMARK   20  A    between atoms: O_45  and  C_46
REMARK   21  A    between atoms: O_47  and  C_48
REMARK   22  A    between atoms: O_49  and  C_50
REMARK   23  A    between atoms: O_53  and  C_54
REMARK                            x       y       z     vdW  Elec       q    Type
REMARK                         _______ _______ _______ _____ _____    ______ ____
ROOT
ATOM      1  C   UNL     1     154.078 165.634 188.506  0.00  0.00    +0.113 C 
ATOM      2  C   UNL     1     153.641 165.251 187.054  0.00  0.00    +0.020 C 
ATOM      3  C   UNL     1     152.713 164.017 186.867  0.00  0.00    +0.067 C 
ATOM      4  C   UNL     1     153.231 162.701 187.495  0.00  0.00    +0.003 C 
ATOM      5  C   UNL     1     152.299 161.508 187.178  0.00  0.00    +0.094 C 
ATOM      6  C   UNL     1     153.019 160.163 187.327  0.00  0.00    +0.145 C 
ATOM      7  C   UNL     1     152.990 159.461 188.680  0.00  0.00    +0.083 C 
ATOM      8  O   UNL     1     152.126 159.057 187.616  0.00  0.00    -0.363 OA
ATOM      9  C   UNL     1     154.052 159.756 186.270  0.00  0.00    +0.094 C 
ATOM     10  C   UNL     1     155.480 159.724 186.839  0.00  0.00    +0.003 C 
ATOM     11  C   UNL     1     156.579 159.393 185.806  0.00  0.00    +0.065 C 
ATOM     12  C   UNL     1     156.421 158.070 185.039  0.00  0.00    -0.008 C 
ATOM     13  C   UNL     1     156.763 156.892 185.896  0.00  0.00    -0.083 C 
ATOM     14  C   UNL     1     157.542 157.049 186.976  0.00  0.00    -0.059 C 
ATOM     15  C   UNL     1     158.125 158.386 187.393  0.00  0.00    +0.080 C 
ATOM     16  O   UNL     1     157.884 159.410 186.417  0.00  0.00    -0.369 OA
ATOM     17  C   UNL     1     159.638 158.243 187.611  0.00  0.00    +0.006 C 
ATOM     18  C   UNL     1     160.400 159.492 188.113  0.00  0.00    +0.090 C 
ATOM     19  C   UNL     1     159.816 160.167 189.390  0.00  0.00    +0.100 C 
ATOM     20  C   UNL     1     158.719 161.179 189.166  0.00  0.00    -0.051 C 
ATOM     21  C   UNL     1     158.463 162.275 189.910  0.00  0.00    -0.052 C 
ATOM     22  C   UNL     1     157.430 163.205 189.459  0.00  0.00    -0.052 C 
ATOM     23  C   UNL     1     157.261 164.447 189.933  0.00  0.00    +0.023 C 
ATOM     24  C   UNL     1     156.253 165.399 189.440  0.00  0.00    +0.332 C 
ATOM     25  O   UNL     1     156.396 166.603 189.586  0.00  0.00    -0.246 OA
ATOM     26  O   UNL     1     155.171 164.770 188.908  0.00  0.00    -0.458 OA
ATOM     27  H   UNL     1     154.450 166.659 188.416  0.00  0.00    +0.074 HD
ATOM     28  H   UNL     1     153.076 166.120 186.685  0.00  0.00    +0.036 HD
ATOM     29  H   UNL     1     152.619 163.828 185.789  0.00  0.00    +0.060 HD
ATOM     30  H   UNL     1     153.302 162.798 188.585  0.00  0.00    +0.032 HD
ATOM     31  H   UNL     1     154.238 162.504 187.116  0.00  0.00    +0.032 HD
ATOM     32  H   UNL     1     151.924 161.604 186.153  0.00  0.00    +0.063 HD
ATOM     33  H   UNL     1     153.773 158.771 188.965  0.00  0.00    +0.059 HD
ATOM     34  H   UNL     1     152.544 159.976 189.525  0.00  0.00    +0.059 HD
ATOM     35  H   UNL     1     153.804 158.746 185.915  0.00  0.00    +0.063 HD
ATOM     36  H   UNL     1     155.521 159.014 187.670  0.00  0.00    +0.032 HD
ATOM     37  H   UNL     1     155.723 160.698 187.282  0.00  0.00    +0.032 HD
ATOM     38  H   UNL     1     156.593 160.203 185.065  0.00  0.00    +0.060 HD
ATOM     39  H   UNL     1     157.120 158.064 184.194  0.00  0.00    +0.033 HD
ATOM     40  H   UNL     1     155.418 157.962 184.620  0.00  0.00    +0.033 HD
ATOM     41  H   UNL     1     156.388 155.911 185.620  0.00  0.00    +0.057 HD
ATOM     42  H   UNL     1     157.765 156.191 187.606  0.00  0.00    +0.059 HD
ATOM     43  H   UNL     1     157.645 158.674 188.332  0.00  0.00    +0.064 HD
ATOM     44  H   UNL     1     159.815 157.433 188.332  0.00  0.00    +0.032 HD
ATOM     45  H   UNL     1     160.089 157.924 186.664  0.00  0.00    +0.032 HD
ATOM     46  H   UNL     1     161.394 159.125 188.408  0.00  0.00    +0.063 HD
ATOM     47  H   UNL     1     160.659 160.684 189.862  0.00  0.00    +0.066 HD
ATOM     48  H   UNL     1     158.165 161.045 188.242  0.00  0.00    +0.060 HD
ATOM     49  H   UNL     1     156.796 162.862 188.644  0.00  0.00    +0.062 HD
ATOM     50  H   UNL     1     157.909 164.872 190.689  0.00  0.00    +0.069 HD
ENDROOT
BRANCH  21  51
ATOM     51  C   UNL     1     159.191 162.592 191.192  0.00  0.00    -0.040 C 
ATOM     52  H   UNL     1     159.014 163.613 191.544  0.00  0.00    +0.028 HD
ATOM     53  H   UNL     1     158.875 161.908 191.989  0.00  0.00    +0.028 HD
ATOM     54  H   UNL     1     160.277 162.503 191.064  0.00  0.00    +0.028 HD
ENDBRANCH  21  51
BRANCH   2  55
ATOM     55  C   UNL     1     154.869 165.132 186.135  0.00  0.00    -0.057 C 
ATOM     56  H   UNL     1     154.560 164.898 185.109  0.00  0.00    +0.023 HD
ATOM     57  H   UNL     1     155.457 166.053 186.106  0.00  0.00    +0.023 HD
ATOM     58  H   UNL     1     155.526 164.323 186.473  0.00  0.00    +0.023 HD
ENDBRANCH   2  55
BRANCH   1  59
ATOM     59  C   UNL     1     152.967 165.616 189.597  0.00  0.00    +0.020 C 
ATOM     60  H   UNL     1     152.031 165.376 189.083  0.00  0.00    +0.036 HD
BRANCH  59  61
ATOM     61  C   UNL     1     153.096 164.456 190.597  0.00  0.00    -0.057 C 
ATOM     62  H   UNL     1     153.247 164.834 191.615  0.00  0.00    +0.023 HD
ATOM     63  H   UNL     1     152.179 163.857 190.620  0.00  0.00    +0.023 HD
ATOM     64  H   UNL     1     153.926 163.788 190.354  0.00  0.00    +0.023 HD
ENDBRANCH  59  61
BRANCH  59  65
ATOM     65  C   UNL     1     152.774 166.986 190.313  0.00  0.00    +0.064 C 
ATOM     66  H   UNL     1     153.737 167.371 190.664  0.00  0.00    +0.060 HD
BRANCH  65  67
ATOM     67  C   UNL     1     151.769 167.060 191.509  0.00  0.00    -0.017 C 
ATOM     68  H   UNL     1     151.241 166.107 191.558  0.00  0.00    +0.032 HD
BRANCH  67  69
ATOM     69  C   UNL     1     152.492 167.287 192.838  0.00  0.00    -0.060 C 
ATOM     70  H   UNL     1     151.821 167.680 193.607  0.00  0.00    +0.023 HD
ATOM     71  H   UNL     1     153.322 167.991 192.723  0.00  0.00    +0.023 HD
ATOM     72  H   UNL     1     152.882 166.355 193.250  0.00  0.00    +0.023 HD
ENDBRANCH  67  69
BRANCH  67  73
ATOM     73  C   UNL     1     150.703 168.157 191.240  0.00  0.00    -0.046 C 
ATOM     74  H   UNL     1     151.237 169.108 191.111  0.00  0.00    +0.027 HD
ATOM     75  H   UNL     1     150.205 167.959 190.281  0.00  0.00    +0.027 HD
BRANCH  73  76
ATOM     76  C   UNL     1     149.613 168.399 192.293  0.00  0.00    -0.026 C 
ATOM     77  H   UNL     1     148.839 167.625 192.256  0.00  0.00    +0.029 HD
ATOM     78  H   UNL     1     150.086 168.241 193.274  0.00  0.00    +0.029 HD
BRANCH  76  83
ATOM     79  C   UNL     1     147.567 170.370 190.453  0.00  0.00    +0.059 C 
ATOM     80  C   UNL     1     147.703 171.862 190.738  0.00  0.00    -0.000 C 
ATOM     81  C   UNL     1     149.030 172.180 191.437  0.00  0.00    +0.063 C 
ATOM     82  C   UNL     1     149.831 170.921 191.772  0.00  0.00    -0.000 C 
ATOM     83  C   UNL     1     148.963 169.796 192.343  0.00  0.00    +0.061 C 
ATOM     84  O   UNL     1     147.692 169.657 191.681  0.00  0.00    -0.373 OA
ATOM     85  H   UNL     1     148.336 170.027 189.750  0.00  0.00    +0.059 HD
ATOM     86  H   UNL     1     147.634 172.430 189.804  0.00  0.00    +0.032 HD
ATOM     87  H   UNL     1     146.866 172.188 191.369  0.00  0.00    +0.032 HD
ATOM     88  H   UNL     1     149.652 172.806 190.785  0.00  0.00    +0.060 HD
ATOM     89  H   UNL     1     150.319 170.576 190.853  0.00  0.00    +0.032 HD
ATOM     90  H   UNL     1     150.618 171.175 192.487  0.00  0.00    +0.032 HD
ATOM     91  H   UNL     1     148.729 170.030 193.389  0.00  0.00    +0.060 HD
BRANCH  79  92
ATOM     92  C   UNL     1     146.202 170.046 189.861  0.00  0.00    -0.039 C 
ATOM     93  H   UNL     1     146.293 169.450 188.950  0.00  0.00    +0.025 HD
ATOM     94  H   UNL     1     145.597 169.492 190.583  0.00  0.00    +0.025 HD
ATOM     95  H   UNL     1     145.649 170.965 189.626  0.00  0.00    +0.025 HD
ENDBRANCH  79  92
BRANCH  81  96
ATOM     96  O   UNL     1     148.794 172.900 192.656  0.00  0.00    -0.380 OA
BRANCH  96  97
ATOM     97  C   UNL     1     147.439 173.309 192.808  0.00  0.00    +0.037 C 
ATOM     98  H   UNL     1     147.399 174.328 193.211  0.00  0.00    +0.052 HD
ATOM     99  H   UNL     1     146.953 172.635 193.518  0.00  0.00    +0.052 HD
ATOM    100  H   UNL     1     146.897 173.262 191.857  0.00  0.00    +0.052 HD
ENDBRANCH  96  97
ENDBRANCH  81  96
ENDBRANCH  76  83
ENDBRANCH  73  76
ENDBRANCH  67  73
ENDBRANCH  65  67
BRANCH  65 101
ATOM    101  O   UNL     1     152.325 167.911 189.310  0.00  0.00    -0.391 OA
ATOM    102  H   UNL     1     153.132 168.252 188.868  0.00  0.00    +0.210 HD
ENDBRANCH  65 101
ENDBRANCH  59  65
ENDBRANCH   1  59
BRANCH  19 103
ATOM    103  O   UNL     1     159.360 159.177 190.311  0.00  0.00    -0.385 OA
ATOM    104  H   UNL     1     158.387 159.226 190.332  0.00  0.00    +0.210 HD
ENDBRANCH  19 103
BRANCH  18 105
ATOM    105  O   UNL     1     160.578 160.479 187.087  0.00  0.00    -0.377 OA
BRANCH 105 106
ATOM    106  C   UNL     1     161.391 160.042 186.008  0.00  0.00    +0.037 C 
ATOM    107  H   UNL     1     161.443 158.950 185.947  0.00  0.00    +0.052 HD
ATOM    108  H   UNL     1     160.956 160.419 185.077  0.00  0.00    +0.052 HD
ATOM    109  H   UNL     1     162.399 160.458 186.110  0.00  0.00    +0.052 HD
ENDBRANCH 105 106
ENDBRANCH  18 105
BRANCH   9 110
ATOM    110  O   UNL     1     154.031 160.669 185.162  0.00  0.00    -0.377 OA
BRANCH 110 111
ATOM    111  C   UNL     1     153.413 160.111 184.008  0.00  0.00    +0.037 C 
ATOM    112  H   UNL     1     152.326 160.213 184.074  0.00  0.00    +0.052 HD
ATOM    113  H   UNL     1     153.658 159.047 183.968  0.00  0.00    +0.052 HD
ATOM    114  H   UNL     1     153.780 160.588 183.093  0.00  0.00    +0.052 HD
ENDBRANCH 110 111
ENDBRANCH   9 110
BRANCH   5 115
ATOM    115  O   UNL     1     151.190 161.583 188.097  0.00  0.00    -0.377 OA
BRANCH 115 116
ATOM    116  C   UNL     1     149.930 161.400 187.466  0.00  0.00    +0.037 C 
ATOM    117  H   UNL     1     149.765 162.171 186.708  0.00  0.00    +0.052 HD
ATOM    118  H   UNL     1     149.856 160.410 187.008  0.00  0.00    +0.052 HD
ATOM    119  H   UNL     1     149.150 161.492 188.227  0.00  0.00    +0.052 HD
ENDBRANCH 115 116
ENDBRANCH   5 115
BRANCH   3 120
ATOM    120  O   UNL     1     151.406 164.326 187.381  0.00  0.00    -0.379 OA
BRANCH 120 121
ATOM    121  C   UNL     1     150.704 165.279 186.594  0.00  0.00    +0.037 C 
ATOM    122  H   UNL     1     151.372 166.123 186.405  0.00  0.00    +0.052 HD
ATOM    123  H   UNL     1     149.827 165.647 187.133  0.00  0.00    +0.052 HD
ATOM    124  H   UNL     1     150.403 164.853 185.633  0.00  0.00    +0.052 HD
ENDBRANCH 120 121
ENDBRANCH   3 120
TORSDOF 23
ENDMDL
MODEL 4
REMARK VINA RESULT:      -5.1      1.246      2.086
REMARK  Name = Lobophorolide_conf3
REMARK  23 active torsions:
REMARK  status: ('A' for Active; 'I' for Inactive)
REMARK    1  A    between atoms: C_1  and  C_2
REMARK    2  A    between atoms: C_4  and  O_53
REMARK    3  A    between atoms: C_6  and  C_8
REMARK    4  A    between atoms: C_8  and  C_9
REMARK    5  A    between atoms: C_9  and  C_10
REMARK    6  A    between atoms: C_10  and  C_11
REMARK    7  A    between atoms: C_10  and  C_12
REMARK    8  A    between atoms: C_12  and  C_13
REMARK    9  A    between atoms: C_12  and  O_52
REMARK   10  A    between atoms: C_13  and  C_14
REMARK   11  A    between atoms: C_13  and  C_15
REMARK   12  A    between atoms: C_16  and  C_51
REMARK   13  A    between atoms: C_17  and  O_49
REMARK   14  A    between atoms: C_19  and  O_47
REMARK   15  A    between atoms: C_23  and  O_45
REMARK   16  A    between atoms: C_32  and  O_43
REMARK   17  A    between atoms: C_33  and  O_42
REMARK   18  A    between atoms: C_35  and  C_41
REMARK   19  A    between atoms: O_43  and  C_44
REMARK   20  A    between atoms: O_45  and  C_46
REMARK   21  A    between atoms: O_47  and  C_48
REMARK   22  A    between atoms: O_49  and  C_50
REMARK   23  A    between atoms: O_53  and  C_54
REMARK                            x       y       z     vdW  Elec       q    Type
REMARK                         _______ _______ _______ _____ _____    ______ ____
ROOT
ATOM      1  C   UNL     1     154.121 165.565 188.567  0.00  0.00    +0.113 C 
ATOM      2  C   UNL     1     153.690 165.184 187.112  0.00  0.00    +0.020 C 
ATOM      3  C   UNL     1     152.778 163.939 186.919  0.00  0.00    +0.067 C 
ATOM      4  C   UNL     1     153.313 162.627 187.540  0.00  0.00    +0.003 C 
ATOM      5  C   UNL     1     152.397 161.423 187.216  0.00  0.00    +0.094 C 
ATOM      6  C   UNL     1     153.135 160.087 187.358  0.00  0.00    +0.145 C 
ATOM      7  C   UNL     1     153.114 159.377 188.708  0.00  0.00    +0.083 C 
ATOM      8  O   UNL     1     152.257 158.967 187.641  0.00  0.00    -0.363 OA
ATOM      9  C   UNL     1     154.173 159.699 186.300  0.00  0.00    +0.094 C 
ATOM     10  C   UNL     1     155.601 159.683 186.869  0.00  0.00    +0.003 C 
ATOM     11  C   UNL     1     156.706 159.372 185.835  0.00  0.00    +0.065 C 
ATOM     12  C   UNL     1     156.565 158.051 185.061  0.00  0.00    -0.008 C 
ATOM     13  C   UNL     1     156.922 156.873 185.912  0.00  0.00    -0.083 C 
ATOM     14  C   UNL     1     157.699 157.035 186.993  0.00  0.00    -0.059 C 
ATOM     15  C   UNL     1     158.264 158.377 187.418  0.00  0.00    +0.080 C 
ATOM     16  O   UNL     1     158.009 159.403 186.447  0.00  0.00    -0.369 OA
ATOM     17  C   UNL     1     159.778 158.253 187.636  0.00  0.00    +0.006 C 
ATOM     18  C   UNL     1     160.523 159.509 188.145  0.00  0.00    +0.090 C 
ATOM     19  C   UNL     1     159.930 160.169 189.425  0.00  0.00    +0.100 C 
ATOM     20  C   UNL     1     158.820 161.168 189.206  0.00  0.00    -0.051 C 
ATOM     21  C   UNL     1     158.549 162.257 189.955  0.00  0.00    -0.052 C 
ATOM     22  C   UNL     1     157.504 163.176 189.509  0.00  0.00    -0.052 C 
ATOM     23  C   UNL     1     157.318 164.413 189.989  0.00  0.00    +0.023 C 
ATOM     24  C   UNL     1     156.298 165.354 189.501  0.00  0.00    +0.332 C 
ATOM     25  O   UNL     1     156.425 166.559 189.654  0.00  0.00    -0.246 OA
ATOM     26  O   UNL     1     155.225 164.713 188.965  0.00  0.00    -0.458 OA
ATOM     27  H   UNL     1     154.479 166.596 188.483  0.00  0.00    +0.074 HD
ATOM     28  H   UNL     1     153.114 166.047 186.748  0.00  0.00    +0.036 HD
ATOM     29  H   UNL     1     152.687 163.754 185.840  0.00  0.00    +0.060 HD
ATOM     30  H   UNL     1     153.382 162.719 188.630  0.00  0.00    +0.032 HD
ATOM     31  H   UNL     1     154.322 162.445 187.160  0.00  0.00    +0.032 HD
ATOM     32  H   UNL     1     152.021 161.519 186.191  0.00  0.00    +0.063 HD
ATOM     33  H   UNL     1     153.906 158.697 188.989  0.00  0.00    +0.059 HD
ATOM     34  H   UNL     1     152.661 159.882 189.555  0.00  0.00    +0.059 HD
ATOM     35  H   UNL     1     153.939 158.688 185.939  0.00  0.00    +0.063 HD
ATOM     36  H   UNL     1     155.652 158.970 187.696  0.00  0.00    +0.032 HD
ATOM     37  H   UNL     1     155.831 160.658 187.317  0.00  0.00    +0.032 HD
ATOM     38  H   UNL     1     156.708 160.186 185.098  0.00  0.00    +0.060 HD
ATOM     39  H   UNL     1     157.264 158.059 184.216  0.00  0.00    +0.033 HD
ATOM     40  H   UNL     1     155.564 157.932 184.641  0.00  0.00    +0.033 HD
ATOM     41  H   UNL     1     156.560 155.889 185.631  0.00  0.00    +0.057 HD
ATOM     42  H   UNL     1     157.933 156.177 187.619  0.00  0.00    +0.059 HD
ATOM     43  H   UNL     1     157.779 158.654 188.358  0.00  0.00    +0.064 HD
ATOM     44  H   UNL     1     159.966 157.441 188.352  0.00  0.00    +0.032 HD
ATOM     45  H   UNL     1     160.233 157.944 186.687  0.00  0.00    +0.032 HD
ATOM     46  H   UNL     1     161.522 159.154 188.439  0.00  0.00    +0.063 HD
ATOM     47  H   UNL     1     160.766 160.695 189.900  0.00  0.00    +0.066 HD
ATOM     48  H   UNL     1     158.268 161.032 188.280  0.00  0.00    +0.060 HD
ATOM     49  H   UNL     1     156.875 162.829 188.692  0.00  0.00    +0.062 HD
ATOM     50  H   UNL     1     157.960 164.842 190.748  0.00  0.00    +0.069 HD
ENDROOT
BRANCH  21  51
ATOM     51  C   UNL     1     159.273 162.576 191.239  0.00  0.00    -0.040 C 
ATOM     52  H   UNL     1     160.128 161.918 191.424  0.00  0.00    +0.028 HD
ATOM     53  H   UNL     1     159.648 163.607 191.219  0.00  0.00    +0.028 HD
ATOM     54  H   UNL     1     158.612 162.461 192.106  0.00  0.00    +0.028 HD
ENDBRANCH  21  51
BRANCH   2  55
ATOM     55  C   UNL     1     154.919 165.086 186.194  0.00  0.00    -0.057 C 
ATOM     56  H   UNL     1     155.802 165.511 186.687  0.00  0.00    +0.023 HD
ATOM     57  H   UNL     1     155.152 164.054 185.921  0.00  0.00    +0.023 HD
ATOM     58  H   UNL     1     154.756 165.650 185.269  0.00  0.00    +0.023 HD
ENDBRANCH   2  55
BRANCH   1  59
ATOM     59  C   UNL     1     153.010 165.527 189.657  0.00  0.00    +0.020 C 
ATOM     60  H   UNL     1     152.070 165.316 189.136  0.00  0.00    +0.036 HD
BRANCH  59  61
ATOM     61  C   UNL     1     153.123 164.333 190.619  0.00  0.00    -0.057 C 
ATOM     62  H   UNL     1     153.621 163.487 190.133  0.00  0.00    +0.023 HD
ATOM     63  H   UNL     1     153.731 164.593 191.493  0.00  0.00    +0.023 HD
ATOM     64  H   UNL     1     152.148 163.996 190.979  0.00  0.00    +0.023 HD
ENDBRANCH  59  61
BRANCH  59  65
ATOM     65  C   UNL     1     152.836 166.875 190.418  0.00  0.00    +0.064 C 
ATOM     66  H   UNL     1     153.812 167.311 190.649  0.00  0.00    +0.060 HD
BRANCH  65  67
ATOM     67  C   UNL     1     151.991 166.878 191.734  0.00  0.00    -0.017 C 
ATOM     68  H   UNL     1     151.691 165.849 191.938  0.00  0.00    +0.032 HD
BRANCH  67  69
ATOM     69  C   UNL     1     152.804 167.395 192.923  0.00  0.00    -0.060 C 
ATOM     70  H   UNL     1     153.874 167.210 192.799  0.00  0.00    +0.023 HD
ATOM     71  H   UNL     1     152.484 166.921 193.857  0.00  0.00    +0.023 HD
ATOM     72  H   UNL     1     152.712 168.476 193.033  0.00  0.00    +0.023 HD
ENDBRANCH  67  69
BRANCH  67  73
ATOM     73  C   UNL     1     150.688 167.698 191.529  0.00  0.00    -0.046 C 
ATOM     74  H   UNL     1     150.541 168.310 192.430  0.00  0.00    +0.027 HD
ATOM     75  H   UNL     1     150.827 168.408 190.703  0.00  0.00    +0.027 HD
BRANCH  73  76
ATOM     76  C   UNL     1     149.374 166.945 191.285  0.00  0.00    -0.026 C 
ATOM     77  H   UNL     1     148.932 167.209 190.318  0.00  0.00    +0.029 HD
ATOM     78  H   UNL     1     149.639 165.884 191.164  0.00  0.00    +0.029 HD
BRANCH  76  83
ATOM     79  C   UNL     1     148.802 165.756 194.402  0.00  0.00    +0.059 C 
ATOM     80  C   UNL     1     147.329 165.692 194.794  0.00  0.00    -0.000 C 
ATOM     81  C   UNL     1     146.419 165.736 193.560  0.00  0.00    +0.063 C 
ATOM     82  C   UNL     1     147.202 165.940 192.262  0.00  0.00    -0.000 C 
ATOM     83  C   UNL     1     148.300 167.001 192.390  0.00  0.00    +0.061 C 
ATOM     84  O   UNL     1     149.020 166.938 193.635  0.00  0.00    -0.373 OA
ATOM     85  H   UNL     1     149.096 164.878 193.815  0.00  0.00    +0.059 HD
ATOM     86  H   UNL     1     147.132 164.779 195.364  0.00  0.00    +0.032 HD
ATOM     87  H   UNL     1     147.094 166.536 195.456  0.00  0.00    +0.032 HD
ATOM     88  H   UNL     1     145.871 164.789 193.470  0.00  0.00    +0.060 HD
ATOM     89  H   UNL     1     147.652 164.981 191.983  0.00  0.00    +0.032 HD
ATOM     90  H   UNL     1     146.510 166.225 191.466  0.00  0.00    +0.032 HD
ATOM     91  H   UNL     1     147.834 167.993 192.367  0.00  0.00    +0.060 HD
BRANCH  79  92
ATOM     92  C   UNL     1     149.695 165.826 195.634  0.00  0.00    -0.039 C 
ATOM     93  H   UNL     1     150.338 166.710 195.611  0.00  0.00    +0.025 HD
ATOM     94  H   UNL     1     149.087 165.858 196.541  0.00  0.00    +0.025 HD
ATOM     95  H   UNL     1     150.328 164.933 195.710  0.00  0.00    +0.025 HD
ENDBRANCH  79  92
BRANCH  81  96
ATOM     96  O   UNL     1     145.462 166.798 193.680  0.00  0.00    -0.380 OA
BRANCH  96  97
ATOM     97  C   UNL     1     144.142 166.402 193.323  0.00  0.00    +0.037 C 
ATOM     98  H   UNL     1     143.668 167.184 192.719  0.00  0.00    +0.052 HD
ATOM     99  H   UNL     1     143.562 166.270 194.240  0.00  0.00    +0.052 HD
ATOM    100  H   UNL     1     144.143 165.455 192.773  0.00  0.00    +0.052 HD
ENDBRANCH  96  97
ENDBRANCH  81  96
ENDBRANCH  76  83
ENDBRANCH  73  76
ENDBRANCH  67  73
ENDBRANCH  65  67
BRANCH  65 101
ATOM    101  O   UNL     1     152.210 167.784 189.498  0.00  0.00    -0.391 OA
ATOM    102  H   UNL     1     151.937 168.565 190.024  0.00  0.00    +0.210 HD
ENDBRANCH  65 101
ENDBRANCH  59  65
ENDBRANCH   1  59
BRANCH  19 103
ATOM    103  O   UNL     1     159.487 159.168 190.340  0.00  0.00    -0.385 OA
ATOM    104  H   UNL     1     159.984 158.354 190.143  0.00  0.00    +0.210 HD
ENDBRANCH  19 103
BRANCH  18 105
ATOM    105  O   UNL     1     160.688 160.504 187.124  0.00  0.00    -0.377 OA
BRANCH 105 106
ATOM    106  C   UNL     1     161.457 160.063 186.014  0.00  0.00    +0.037 C 
ATOM    107  H   UNL     1     162.513 159.928 186.272  0.00  0.00    +0.052 HD
ATOM    108  H   UNL     1     161.056 159.100 185.682  0.00  0.00    +0.052 HD
ATOM    109  H   UNL     1     161.363 160.778 185.190  0.00  0.00    +0.052 HD
ENDBRANCH 105 106
ENDBRANCH  18 105
BRANCH   9 110
ATOM    110  O   UNL     1     154.141 160.617 185.197  0.00  0.00    -0.377 OA
BRANCH 110 111
ATOM    111  C   UNL     1     153.519 160.062 184.043  0.00  0.00    +0.037 C 
ATOM    112  H   UNL     1     153.674 158.981 184.013  0.00  0.00    +0.052 HD
ATOM    113  H   UNL     1     153.985 160.502 183.158  0.00  0.00    +0.052 HD
ATOM    114  H   UNL     1     152.448 160.289 184.022  0.00  0.00    +0.052 HD
ENDBRANCH 110 111
ENDBRANCH   9 110
BRANCH   5 115
ATOM    115  O   UNL     1     151.287 161.478 188.135  0.00  0.00    -0.377 OA
BRANCH 115 116
ATOM    116  C   UNL     1     150.028 161.296 187.501  0.00  0.00    +0.037 C 
ATOM    117  H   UNL     1     150.110 160.569 186.688  0.00  0.00    +0.052 HD
ATOM    118  H   UNL     1     149.269 160.968 188.214  0.00  0.00    +0.052 HD
ATOM    119  H   UNL     1     149.718 162.254 187.076  0.00  0.00    +0.052 HD
ENDBRANCH 115 116
ENDBRANCH   5 115
BRANCH   3 120
ATOM    120  O   UNL     1     151.467 164.227 187.434  0.00  0.00    -0.379 OA
BRANCH 120 121
ATOM    121  C   UNL     1     150.749 165.170 186.647  0.00  0.00    +0.037 C 
ATOM    122  H   UNL     1     151.163 166.162 186.842  0.00  0.00    +0.052 HD
ATOM    123  H   UNL     1     149.693 165.176 186.928  0.00  0.00    +0.052 HD
ATOM    124  H   UNL     1     150.854 164.954 185.580  0.00  0.00    +0.052 HD
ENDBRANCH 120 121
ENDBRANCH   3 120
TORSDOF 23
ENDMDL
MODEL 5
REMARK VINA RESULT:      -5.0      2.668      3.967
REMARK  Name = Lobophorolide_conf3
REMARK  23 active torsions:
REMARK  status: ('A' for Active; 'I' for Inactive)
REMARK    1  A    between atoms: C_1  and  C_2
REMARK    2  A    between atoms: C_4  and  O_53
REMARK    3  A    between atoms: C_6  and  C_8
REMARK    4  A    between atoms: C_8  and  C_9
REMARK    5  A    between atoms: C_9  and  C_10
REMARK    6  A    between atoms: C_10  and  C_11
REMARK    7  A    between atoms: C_10  and  C_12
REMARK    8  A    between atoms: C_12  and  C_13
REMARK    9  A    between atoms: C_12  and  O_52
REMARK   10  A    between atoms: C_13  and  C_14
REMARK   11  A    between atoms: C_13  and  C_15
REMARK   12  A    between atoms: C_16  and  C_51
REMARK   13  A    between atoms: C_17  and  O_49
REMARK   14  A    between atoms: C_19  and  O_47
REMARK   15  A    between atoms: C_23  and  O_45
REMARK   16  A    between atoms: C_32  and  O_43
REMARK   17  A    between atoms: C_33  and  O_42
REMARK   18  A    between atoms: C_35  and  C_41
REMARK   19  A    between atoms: O_43  and  C_44
REMARK   20  A    between atoms: O_45  and  C_46
REMARK   21  A    between atoms: O_47  and  C_48
REMARK   22  A    between atoms: O_49  and  C_50
REMARK   23  A    between atoms: O_53  and  C_54
REMARK                            x       y       z     vdW  Elec       q    Type
REMARK                         _______ _______ _______ _____ _____    ______ ____
ROOT
ATOM      1  C   UNL     1     153.920 166.515 189.114  0.00  0.00    +0.113 C 
ATOM      2  C   UNL     1     153.544 166.743 187.613  0.00  0.00    +0.020 C 
ATOM      3  C   UNL     1     152.592 165.719 186.931  0.00  0.00    +0.067 C 
ATOM      4  C   UNL     1     153.040 164.241 187.018  0.00  0.00    +0.003 C 
ATOM      5  C   UNL     1     152.092 163.306 186.231  0.00  0.00    +0.094 C 
ATOM      6  C   UNL     1     152.765 161.977 185.872  0.00  0.00    +0.145 C 
ATOM      7  C   UNL     1     152.649 160.809 186.846  0.00  0.00    +0.083 C 
ATOM      8  O   UNL     1     151.828 160.886 185.679  0.00  0.00    -0.363 OA
ATOM      9  C   UNL     1     153.836 161.963 184.776  0.00  0.00    +0.094 C 
ATOM     10  C   UNL     1     155.233 161.650 185.336  0.00  0.00    +0.003 C 
ATOM     11  C   UNL     1     156.372 161.694 184.293  0.00  0.00    +0.065 C 
ATOM     12  C   UNL     1     156.213 160.777 183.068  0.00  0.00    -0.008 C 
ATOM     13  C   UNL     1     156.479 159.345 183.414  0.00  0.00    -0.083 C 
ATOM     14  C   UNL     1     157.209 159.038 184.496  0.00  0.00    -0.059 C 
ATOM     15  C   UNL     1     157.809 160.083 185.418  0.00  0.00    +0.080 C 
ATOM     16  O   UNL     1     157.644 161.414 184.907  0.00  0.00    -0.369 OA
ATOM     17  C   UNL     1     159.305 159.799 185.615  0.00  0.00    +0.006 C 
ATOM     18  C   UNL     1     160.076 160.722 186.587  0.00  0.00    +0.090 C 
ATOM     19  C   UNL     1     159.450 160.877 188.005  0.00  0.00    +0.100 C 
ATOM     20  C   UNL     1     158.394 161.946 188.153  0.00  0.00    -0.051 C 
ATOM     21  C   UNL     1     158.134 162.681 189.255  0.00  0.00    -0.052 C 
ATOM     22  C   UNL     1     157.151 163.758 189.165  0.00  0.00    -0.052 C 
ATOM     23  C   UNL     1     156.994 164.728 190.077  0.00  0.00    +0.023 C 
ATOM     24  C   UNL     1     156.039 165.840 189.957  0.00  0.00    +0.332 C 
ATOM     25  O   UNL     1     156.209 166.887 190.563  0.00  0.00    -0.246 OA
ATOM     26  O   UNL     1     154.967 165.514 189.186  0.00  0.00    -0.458 OA
ATOM     27  H   UNL     1     154.325 167.478 189.441  0.00  0.00    +0.074 HD
ATOM     28  H   UNL     1     153.023 167.711 187.591  0.00  0.00    +0.036 HD
ATOM     29  H   UNL     1     152.545 165.965 185.862  0.00  0.00    +0.060 HD
ATOM     30  H   UNL     1     153.061 163.907 188.061  0.00  0.00    +0.032 HD
ATOM     31  H   UNL     1     154.058 164.160 186.625  0.00  0.00    +0.032 HD
ATOM     32  H   UNL     1     151.769 163.807 185.311  0.00  0.00    +0.063 HD
ATOM     33  H   UNL     1     153.398 160.029 186.867  0.00  0.00    +0.059 HD
ATOM     34  H   UNL     1     152.178 160.978 187.808  0.00  0.00    +0.059 HD
ATOM     35  H   UNL     1     153.577 161.181 184.049  0.00  0.00    +0.063 HD
ATOM     36  H   UNL     1     155.213 160.673 185.828  0.00  0.00    +0.032 HD
ATOM     37  H   UNL     1     155.481 162.365 186.129  0.00  0.00    +0.032 HD
ATOM     38  H   UNL     1     156.444 162.725 183.924  0.00  0.00    +0.060 HD
ATOM     39  H   UNL     1     156.952 161.066 182.311  0.00  0.00    +0.033 HD
ATOM     40  H   UNL     1     155.229 160.885 182.607  0.00  0.00    +0.033 HD
ATOM     41  H   UNL     1     156.090 158.565 182.767  0.00  0.00    +0.057 HD
ATOM     42  H   UNL     1     157.376 157.995 184.752  0.00  0.00    +0.059 HD
ATOM     43  H   UNL     1     157.291 160.008 186.378  0.00  0.00    +0.064 HD
ATOM     44  H   UNL     1     159.423 158.766 185.971  0.00  0.00    +0.032 HD
ATOM     45  H   UNL     1     159.791 159.850 184.634  0.00  0.00    +0.032 HD
ATOM     46  H   UNL     1     161.044 160.225 186.751  0.00  0.00    +0.063 HD
ATOM     47  H   UNL     1     160.284 161.134 188.669  0.00  0.00    +0.066 HD
ATOM     48  H   UNL     1     157.883 162.204 187.231  0.00  0.00    +0.060 HD
ATOM     49  H   UNL     1     156.548 163.785 188.259  0.00  0.00    +0.062 HD
ATOM     50  H   UNL     1     157.617 164.798 190.960  0.00  0.00    +0.069 HD
ENDROOT
BRANCH  21  51
ATOM     51  C   UNL     1     158.808 162.445 190.583  0.00  0.00    -0.040 C 
ATOM     52  H   UNL     1     158.979 161.384 190.794  0.00  0.00    +0.028 HD
ATOM     53  H   UNL     1     159.781 162.949 190.611  0.00  0.00    +0.028 HD
ATOM     54  H   UNL     1     158.194 162.820 191.411  0.00  0.00    +0.028 HD
ENDBRANCH  21  51
BRANCH   2  55
ATOM     55  C   UNL     1     154.811 166.932 186.762  0.00  0.00    -0.057 C 
ATOM     56  H   UNL     1     155.124 165.977 186.321  0.00  0.00    +0.023 HD
ATOM     57  H   UNL     1     154.661 167.644 185.946  0.00  0.00    +0.023 HD
ATOM     58  H   UNL     1     155.640 167.296 187.379  0.00  0.00    +0.023 HD
ENDBRANCH   2  55
BRANCH   1  59
ATOM     59  C   UNL     1     152.757 166.128 190.074  0.00  0.00    +0.020 C 
ATOM     60  H   UNL     1     151.897 165.892 189.440  0.00  0.00    +0.036 HD
BRANCH  59  61
ATOM     61  C   UNL     1     152.983 164.804 190.822  0.00  0.00    -0.057 C 
ATOM     62  H   UNL     1     152.165 164.610 191.525  0.00  0.00    +0.023 HD
ATOM     63  H   UNL     1     153.001 163.960 190.124  0.00  0.00    +0.023 HD
ATOM     64  H   UNL     1     153.923 164.797 191.380  0.00  0.00    +0.023 HD
ENDBRANCH  59  61
BRANCH  59  65
ATOM     65  C   UNL     1     152.334 167.277 191.036  0.00  0.00    +0.064 C 
ATOM     66  H   UNL     1     153.143 167.506 191.737  0.00  0.00    +0.060 HD
BRANCH  65  67
ATOM     67  C   UNL     1     151.023 167.099 191.869  0.00  0.00    -0.017 C 
ATOM     68  H   UNL     1     150.363 166.433 191.311  0.00  0.00    +0.032 HD
BRANCH  67  69
ATOM     69  C   UNL     1     151.305 166.474 193.237  0.00  0.00    -0.060 C 
ATOM     70  H   UNL     1     152.164 166.936 193.730  0.00  0.00    +0.023 HD
ATOM     71  H   UNL     1     151.503 165.400 193.148  0.00  0.00    +0.023 HD
ATOM     72  H   UNL     1     150.471 166.617 193.925  0.00  0.00    +0.023 HD
ENDBRANCH  67  69
BRANCH  67  73
ATOM     73  C   UNL     1     150.287 168.461 192.002  0.00  0.00    -0.046 C 
ATOM     74  H   UNL     1     150.102 168.631 193.072  0.00  0.00    +0.027 HD
ATOM     75  H   UNL     1     150.954 169.272 191.680  0.00  0.00    +0.027 HD
BRANCH  73  76
ATOM     76  C   UNL     1     148.944 168.646 191.285  0.00  0.00    -0.026 C 
ATOM     77  H   UNL     1     148.854 167.980 190.420  0.00  0.00    +0.029 HD
ATOM     78  H   UNL     1     148.169 168.276 191.973  0.00  0.00    +0.029 HD
BRANCH  76  83
ATOM     79  C   UNL     1     148.476 171.682 192.705  0.00  0.00    +0.059 C 
ATOM     80  C   UNL     1     147.539 172.604 191.931  0.00  0.00    -0.000 C 
ATOM     81  C   UNL     1     146.663 171.817 190.949  0.00  0.00    +0.063 C 
ATOM     82  C   UNL     1     147.019 170.330 190.911  0.00  0.00    -0.000 C 
ATOM     83  C   UNL     1     148.530 170.079 190.895  0.00  0.00    +0.061 C 
ATOM     84  O   UNL     1     149.267 170.948 191.774  0.00  0.00    -0.373 OA
ATOM     85  H   UNL     1     147.914 170.985 193.339  0.00  0.00    +0.059 HD
ATOM     86  H   UNL     1     146.902 173.162 192.627  0.00  0.00    +0.032 HD
ATOM     87  H   UNL     1     148.133 173.346 191.382  0.00  0.00    +0.032 HD
ATOM     88  H   UNL     1     145.609 171.898 191.245  0.00  0.00    +0.060 HD
ATOM     89  H   UNL     1     146.579 169.853 191.794  0.00  0.00    +0.032 HD
ATOM     90  H   UNL     1     146.563 169.874 190.028  0.00  0.00    +0.032 HD
ATOM     91  H   UNL     1     148.909 170.285 189.887  0.00  0.00    +0.060 HD
BRANCH  79  92
ATOM     92  C   UNL     1     149.419 172.480 193.595  0.00  0.00    -0.039 C 
ATOM     93  H   UNL     1     148.949 173.400 193.951  0.00  0.00    +0.025 HD
ATOM     94  H   UNL     1     149.721 171.884 194.459  0.00  0.00    +0.025 HD
ATOM     95  H   UNL     1     150.339 172.741 193.057  0.00  0.00    +0.025 HD
ENDBRANCH  79  92
BRANCH  81  96
ATOM     96  O   UNL     1     146.797 172.346 189.622  0.00  0.00    -0.380 OA
BRANCH  96  97
ATOM     97  C   UNL     1     145.834 171.824 188.714  0.00  0.00    +0.037 C 
ATOM     98  H   UNL     1     146.057 172.164 187.696  0.00  0.00    +0.052 HD
ATOM     99  H   UNL     1     144.849 172.204 189.000  0.00  0.00    +0.052 HD
ATOM    100  H   UNL     1     145.806 170.729 188.745  0.00  0.00    +0.052 HD
ENDBRANCH  96  97
ENDBRANCH  81  96
ENDBRANCH  76  83
ENDBRANCH  73  76
ENDBRANCH  67  73
ENDBRANCH  65  67
BRANCH  65 101
ATOM    101  O   UNL     1     152.177 168.453 190.224  0.00  0.00    -0.391 OA
ATOM    102  H   UNL     1     153.072 168.683 189.896  0.00  0.00    +0.210 HD
ENDBRANCH  65 101
ENDBRANCH  59  65
ENDBRANCH   1  59
BRANCH  19 103
ATOM    103  O   UNL     1     158.922 159.630 188.454  0.00  0.00    -0.385 OA
ATOM    104  H   UNL     1     158.058 159.507 188.020  0.00  0.00    +0.210 HD
ENDBRANCH  19 103
BRANCH  18 105
ATOM    105  O   UNL     1     160.332 162.019 186.030  0.00  0.00    -0.377 OA
BRANCH 105 106
ATOM    106  C   UNL     1     161.188 161.997 184.897  0.00  0.00    +0.037 C 
ATOM    107  H   UNL     1     160.693 161.577 184.015  0.00  0.00    +0.052 HD
ATOM    108  H   UNL     1     161.483 163.026 184.671  0.00  0.00    +0.052 HD
ATOM    109  H   UNL     1     162.092 161.422 185.126  0.00  0.00    +0.052 HD
ENDBRANCH 105 106
ENDBRANCH  18 105
BRANCH   9 110
ATOM    110  O   UNL     1     153.895 163.232 184.107  0.00  0.00    -0.377 OA
BRANCH 110 111
ATOM    111  C   UNL     1     153.321 163.191 182.806  0.00  0.00    +0.037 C 
ATOM    112  H   UNL     1     153.320 162.167 182.425  0.00  0.00    +0.052 HD
ATOM    113  H   UNL     1     153.933 163.806 182.142  0.00  0.00    +0.052 HD
ATOM    114  H   UNL     1     152.301 163.592 182.810  0.00  0.00    +0.052 HD
ENDBRANCH 110 111
ENDBRANCH   9 110
BRANCH   5 115
ATOM    115  O   UNL     1     150.942 163.070 187.069  0.00  0.00    -0.377 OA
BRANCH 115 116
ATOM    116  C   UNL     1     149.708 163.223 186.380  0.00  0.00    +0.037 C 
ATOM    117  H   UNL     1     149.485 162.329 185.790  0.00  0.00    +0.052 HD
ATOM    118  H   UNL     1     148.888 163.421 187.074  0.00  0.00    +0.052 HD
ATOM    119  H   UNL     1     149.801 164.071 185.697  0.00  0.00    +0.052 HD
ENDBRANCH 115 116
ENDBRANCH   5 115
BRANCH   3 120
ATOM    120  O   UNL     1     151.270 165.864 187.480  0.00  0.00    -0.379 OA
BRANCH 120 121
ATOM    121  C   UNL     1     150.555 166.967 186.937  0.00  0.00    +0.037 C 
ATOM    122  H   UNL     1     151.145 167.871 187.102  0.00  0.00    +0.052 HD
ATOM    123  H   UNL     1     149.594 167.085 187.444  0.00  0.00    +0.052 HD
ATOM    124  H   UNL     1     150.400 166.846 185.861  0.00  0.00    +0.052 HD
ENDBRANCH 120 121
ENDBRANCH   3 120
TORSDOF 23
ENDMDL
MODEL 6
REMARK VINA RESULT:      -5.0      3.762     10.540
REMARK  Name = Lobophorolide_conf3
REMARK  23 active torsions:
REMARK  status: ('A' for Active; 'I' for Inactive)
REMARK    1  A    between atoms: C_1  and  C_2
REMARK    2  A    between atoms: C_4  and  O_53
REMARK    3  A    between atoms: C_6  and  C_8
REMARK    4  A    between atoms: C_8  and  C_9
REMARK    5  A    between atoms: C_9  and  C_10
REMARK    6  A    between atoms: C_10  and  C_11
REMARK    7  A    between atoms: C_10  and  C_12
REMARK    8  A    between atoms: C_12  and  C_13
REMARK    9  A    between atoms: C_12  and  O_52
REMARK   10  A    between atoms: C_13  and  C_14
REMARK   11  A    between atoms: C_13  and  C_15
REMARK   12  A    between atoms: C_16  and  C_51
REMARK   13  A    between atoms: C_17  and  O_49
REMARK   14  A    between atoms: C_19  and  O_47
REMARK   15  A    between atoms: C_23  and  O_45
REMARK   16  A    between atoms: C_32  and  O_43
REMARK   17  A    between atoms: C_33  and  O_42
REMARK   18  A    between atoms: C_35  and  C_41
REMARK   19  A    between atoms: O_43  and  C_44
REMARK   20  A    between atoms: O_45  and  C_46
REMARK   21  A    between atoms: O_47  and  C_48
REMARK   22  A    between atoms: O_49  and  C_50
REMARK   23  A    between atoms: O_53  and  C_54
REMARK                            x       y       z     vdW  Elec       q    Type
REMARK                         _______ _______ _______ _____ _____    ______ ____
ROOT
ATOM      1  C   UNL     1     154.115 164.814 188.289  0.00  0.00    +0.113 C 
ATOM      2  C   UNL     1     153.421 163.492 187.824  0.00  0.00    +0.020 C 
ATOM      3  C   UNL     1     152.472 163.554 186.592  0.00  0.00    +0.067 C 
ATOM      4  C   UNL     1     151.335 164.598 186.687  0.00  0.00    +0.003 C 
ATOM      5  C   UNL     1     150.384 164.523 185.469  0.00  0.00    +0.094 C 
ATOM      6  C   UNL     1     149.016 165.147 185.770  0.00  0.00    +0.145 C 
ATOM      7  C   UNL     1     148.808 166.631 185.485  0.00  0.00    +0.083 C 
ATOM      8  O   UNL     1     148.326 165.628 184.588  0.00  0.00    -0.363 OA
ATOM      9  C   UNL     1     148.047 164.396 186.689  0.00  0.00    +0.094 C 
ATOM     10  C   UNL     1     147.830 165.128 188.024  0.00  0.00    +0.003 C 
ATOM     11  C   UNL     1     146.920 164.385 189.027  0.00  0.00    +0.065 C 
ATOM     12  C   UNL     1     145.510 164.022 188.532  0.00  0.00    -0.008 C 
ATOM     13  C   UNL     1     144.615 165.221 188.488  0.00  0.00    -0.083 C 
ATOM     14  C   UNL     1     144.898 166.299 189.233  0.00  0.00    -0.059 C 
ATOM     15  C   UNL     1     146.101 166.382 190.153  0.00  0.00    +0.080 C 
ATOM     16  O   UNL     1     146.792 165.128 190.255  0.00  0.00    -0.369 OA
ATOM     17  C   UNL     1     145.650 166.824 191.552  0.00  0.00    +0.006 C 
ATOM     18  C   UNL     1     146.753 167.036 192.615  0.00  0.00    +0.090 C 
ATOM     19  C   UNL     1     147.921 167.976 192.193  0.00  0.00    +0.100 C 
ATOM     20  C   UNL     1     149.058 167.329 191.439  0.00  0.00    -0.051 C 
ATOM     21  C   UNL     1     150.360 167.683 191.474  0.00  0.00    -0.052 C 
ATOM     22  C   UNL     1     151.333 166.854 190.768  0.00  0.00    -0.052 C 
ATOM     23  C   UNL     1     152.661 166.921 190.939  0.00  0.00    +0.023 C 
ATOM     24  C   UNL     1     153.634 166.048 190.265  0.00  0.00    +0.332 C 
ATOM     25  O   UNL     1     154.744 165.856 190.738  0.00  0.00    -0.246 OA
ATOM     26  O   UNL     1     153.170 165.587 189.073  0.00  0.00    -0.458 OA
ATOM     27  H   UNL     1     154.928 164.479 188.940  0.00  0.00    +0.074 HD
ATOM     28  H   UNL     1     154.244 162.818 187.546  0.00  0.00    +0.036 HD
ATOM     29  H   UNL     1     151.985 162.575 186.495  0.00  0.00    +0.060 HD
ATOM     30  H   UNL     1     151.748 165.612 186.736  0.00  0.00    +0.032 HD
ATOM     31  H   UNL     1     150.776 164.424 187.612  0.00  0.00    +0.032 HD
ATOM     32  H   UNL     1     150.246 163.475 185.181  0.00  0.00    +0.063 HD
ATOM     33  H   UNL     1     148.066 167.201 186.027  0.00  0.00    +0.059 HD
ATOM     34  H   UNL     1     149.658 167.225 185.168  0.00  0.00    +0.059 HD
ATOM     35  H   UNL     1     147.076 164.320 186.180  0.00  0.00    +0.063 HD
ATOM     36  H   UNL     1     147.432 166.127 187.826  0.00  0.00    +0.032 HD
ATOM     37  H   UNL     1     148.796 165.297 188.514  0.00  0.00    +0.032 HD
ATOM     38  H   UNL     1     147.423 163.450 189.301  0.00  0.00    +0.060 HD
ATOM     39  H   UNL     1     145.059 163.312 189.236  0.00  0.00    +0.033 HD
ATOM     40  H   UNL     1     145.538 163.527 187.559  0.00  0.00    +0.033 HD
ATOM     41  H   UNL     1     143.728 165.195 187.862  0.00  0.00    +0.057 HD
ATOM     42  H   UNL     1     144.255 167.174 189.175  0.00  0.00    +0.059 HD
ATOM     43  H   UNL     1     146.783 167.127 189.734  0.00  0.00    +0.064 HD
ATOM     44  H   UNL     1     145.090 167.766 191.461  0.00  0.00    +0.032 HD
ATOM     45  H   UNL     1     144.944 166.077 191.933  0.00  0.00    +0.032 HD
ATOM     46  H   UNL     1     146.255 167.550 193.451  0.00  0.00    +0.063 HD
ATOM     47  H   UNL     1     148.326 168.382 193.128  0.00  0.00    +0.066 HD
ATOM     48  H   UNL     1     148.787 166.420 190.911  0.00  0.00    +0.060 HD
ATOM     49  H   UNL     1     150.927 166.099 190.098  0.00  0.00    +0.062 HD
ATOM     50  H   UNL     1     153.120 167.598 191.648  0.00  0.00    +0.069 HD
ENDROOT
BRANCH  21  51
ATOM     51  C   UNL     1     150.865 168.901 192.207  0.00  0.00    -0.040 C 
ATOM     52  H   UNL     1     150.780 168.812 193.295  0.00  0.00    +0.028 HD
ATOM     53  H   UNL     1     151.921 169.076 191.971  0.00  0.00    +0.028 HD
ATOM     54  H   UNL     1     150.291 169.795 191.933  0.00  0.00    +0.028 HD
ENDBRANCH  21  51
BRANCH   2  55
ATOM     55  C   UNL     1     152.707 162.813 189.005  0.00  0.00    -0.057 C 
ATOM     56  H   UNL     1     152.127 163.548 189.578  0.00  0.00    +0.023 HD
ATOM     57  H   UNL     1     152.022 162.026 188.680  0.00  0.00    +0.023 HD
ATOM     58  H   UNL     1     153.436 162.364 189.689  0.00  0.00    +0.023 HD
ENDBRANCH   2  55
BRANCH   1  59
ATOM     59  C   UNL     1     154.727 165.711 187.173  0.00  0.00    +0.020 C 
ATOM     60  H   UNL     1     154.569 165.182 186.228  0.00  0.00    +0.036 HD
BRANCH  59  61
ATOM     61  C   UNL     1     153.963 167.025 186.941  0.00  0.00    -0.057 C 
ATOM     62  H   UNL     1     154.445 167.623 186.161  0.00  0.00    +0.023 HD
ATOM     63  H   UNL     1     152.942 166.827 186.596  0.00  0.00    +0.023 HD
ATOM     64  H   UNL     1     153.898 167.633 187.847  0.00  0.00    +0.023 HD
ENDBRANCH  59  61
BRANCH  59  65
ATOM     65  C   UNL     1     156.258 165.947 187.332  0.00  0.00    +0.064 C 
ATOM     66  H   UNL     1     156.464 167.005 187.520  0.00  0.00    +0.060 HD
BRANCH  65  67
ATOM     67  C   UNL     1     157.202 165.479 186.177  0.00  0.00    -0.017 C 
ATOM     68  H   UNL     1     158.223 165.475 186.563  0.00  0.00    +0.032 HD
BRANCH  67  69
ATOM     69  C   UNL     1     156.855 164.066 185.703  0.00  0.00    -0.060 C 
ATOM     70  H   UNL     1     157.643 163.347 185.945  0.00  0.00    +0.023 HD
ATOM     71  H   UNL     1     156.693 164.040 184.621  0.00  0.00    +0.023 HD
ATOM     72  H   UNL     1     155.960 163.684 186.197  0.00  0.00    +0.023 HD
ENDBRANCH  67  69
BRANCH  67  73
ATOM     73  C   UNL     1     157.162 166.502 185.009  0.00  0.00    -0.046 C 
ATOM     74  H   UNL     1     157.642 166.027 184.142  0.00  0.00    +0.027 HD
ATOM     75  H   UNL     1     156.120 166.683 184.715  0.00  0.00    +0.027 HD
BRANCH  73  76
ATOM     76  C   UNL     1     157.841 167.865 185.199  0.00  0.00    -0.026 C 
ATOM     77  H   UNL     1     158.281 167.959 186.198  0.00  0.00    +0.029 HD
ATOM     78  H   UNL     1     158.716 167.874 184.533  0.00  0.00    +0.029 HD
BRANCH  76  83
ATOM     79  C   UNL     1     156.097 169.206 182.628  0.00  0.00    +0.059 C 
ATOM     80  C   UNL     1     155.959 170.724 182.681  0.00  0.00    -0.000 C 
ATOM     81  C   UNL     1     157.008 171.350 183.608  0.00  0.00    +0.063 C 
ATOM     82  C   UNL     1     157.854 170.298 184.328  0.00  0.00    -0.000 C 
ATOM     83  C   UNL     1     157.023 169.126 184.861  0.00  0.00    +0.061 C 
ATOM     84  O   UNL     1     155.994 168.690 183.953  0.00  0.00    -0.373 OA
ATOM     85  H   UNL     1     157.058 168.909 182.192  0.00  0.00    +0.059 HD
ATOM     86  H   UNL     1     156.059 171.145 181.675  0.00  0.00    +0.032 HD
ATOM     87  H   UNL     1     154.952 170.984 183.034  0.00  0.00    +0.032 HD
ATOM     88  H   UNL     1     157.690 171.981 183.025  0.00  0.00    +0.060 HD
ATOM     89  H   UNL     1     158.602 169.923 183.621  0.00  0.00    +0.032 HD
ATOM     90  H   UNL     1     158.390 170.772 185.154  0.00  0.00    +0.032 HD
ATOM     91  H   UNL     1     156.499 169.452 185.768  0.00  0.00    +0.060 HD
BRANCH  79  92
ATOM     92  C   UNL     1     154.984 168.582 181.795  0.00  0.00    -0.039 C 
ATOM     93  H   UNL     1     154.021 169.057 181.997  0.00  0.00    +0.025 HD
ATOM     94  H   UNL     1     155.207 168.681 180.730  0.00  0.00    +0.025 HD
ATOM     95  H   UNL     1     154.897 167.508 182.000  0.00  0.00    +0.025 HD
ENDBRANCH  79  92
BRANCH  81  96
ATOM     96  O   UNL     1     156.374 172.172 184.599  0.00  0.00    -0.380 OA
BRANCH  96  97
ATOM     97  C   UNL     1     155.728 173.313 184.046  0.00  0.00    +0.037 C 
ATOM     98  H   UNL     1     156.225 173.609 183.115  0.00  0.00    +0.052 HD
ATOM     99  H   UNL     1     155.810 174.136 184.762  0.00  0.00    +0.052 HD
ATOM    100  H   UNL     1     154.666 173.120 183.858  0.00  0.00    +0.052 HD
ENDBRANCH  96  97
ENDBRANCH  81  96
ENDBRANCH  76  83
ENDBRANCH  73  76
ENDBRANCH  67  73
ENDBRANCH  65  67
BRANCH  65 101
ATOM    101  O   UNL     1     156.655 165.253 188.527  0.00  0.00    -0.391 OA
ATOM    102  H   UNL     1     156.175 164.399 188.522  0.00  0.00    +0.210 HD
ENDBRANCH  65 101
ENDBRANCH  59  65
ENDBRANCH   1  59
BRANCH  19 103
ATOM    103  O   UNL     1     147.423 169.078 191.435  0.00  0.00    -0.385 OA
ATOM    104  H   UNL     1     147.097 168.724 190.588  0.00  0.00    +0.210 HD
ENDBRANCH  19 103
BRANCH  18 105
ATOM    105  O   UNL     1     147.287 165.800 193.110  0.00  0.00    -0.377 OA
BRANCH 105 106
ATOM    106  C   UNL     1     146.571 165.269 194.216  0.00  0.00    +0.037 C 
ATOM    107  H   UNL     1     147.070 165.478 195.168  0.00  0.00    +0.052 HD
ATOM    108  H   UNL     1     145.580 165.733 194.236  0.00  0.00    +0.052 HD
ATOM    109  H   UNL     1     146.443 164.188 194.091  0.00  0.00    +0.052 HD
ENDBRANCH 105 106
ENDBRANCH  18 105
BRANCH   9 110
ATOM    110  O   UNL     1     148.538 163.077 186.976  0.00  0.00    -0.377 OA
BRANCH 110 111
ATOM    111  C   UNL     1     147.824 162.065 186.276  0.00  0.00    +0.037 C 
ATOM    112  H   UNL     1     147.973 161.095 186.757  0.00  0.00    +0.052 HD
ATOM    113  H   UNL     1     148.217 162.010 185.258  0.00  0.00    +0.052 HD
ATOM    114  H   UNL     1     146.755 162.298 186.224  0.00  0.00    +0.052 HD
ENDBRANCH 110 111
ENDBRANCH   9 110
BRANCH   5 115
ATOM    115  O   UNL     1     151.026 165.231 184.389  0.00  0.00    -0.377 OA
BRANCH 115 116
ATOM    116  C   UNL     1     150.946 164.544 183.147  0.00  0.00    +0.037 C 
ATOM    117  H   UNL     1     151.425 163.563 183.220  0.00  0.00    +0.052 HD
ATOM    118  H   UNL     1     149.908 164.425 182.826  0.00  0.00    +0.052 HD
ATOM    119  H   UNL     1     151.479 165.132 182.396  0.00  0.00    +0.052 HD
ENDBRANCH 115 116
ENDBRANCH   5 115
BRANCH   3 120
ATOM    120  O   UNL     1     153.252 163.784 185.406  0.00  0.00    -0.379 OA
BRANCH 120 121
ATOM    121  C   UNL     1     153.629 162.585 184.741  0.00  0.00    +0.037 C 
ATOM    122  H   UNL     1     154.426 162.824 184.032  0.00  0.00    +0.052 HD
ATOM    123  H   UNL     1     152.783 162.176 184.183  0.00  0.00    +0.052 HD
ATOM    124  H   UNL     1     154.007 161.842 185.449  0.00  0.00    +0.052 HD
ENDBRANCH 120 121
ENDBRANCH   3 120
TORSDOF 23
ENDMDL
MODEL 7
REMARK VINA RESULT:      -5.0      7.698     12.925
REMARK  Name = Lobophorolide_conf3
REMARK  23 active torsions:
REMARK  status: ('A' for Active; 'I' for Inactive)
REMARK    1  A    between atoms: C_1  and  C_2
REMARK    2  A    between atoms: C_4  and  O_53
REMARK    3  A    between atoms: C_6  and  C_8
REMARK    4  A    between atoms: C_8  and  C_9
REMARK    5  A    between atoms: C_9  and  C_10
REMARK    6  A    between atoms: C_10  and  C_11
REMARK    7  A    between atoms: C_10  and  C_12
REMARK    8  A    between atoms: C_12  and  C_13
REMARK    9  A    between atoms: C_12  and  O_52
REMARK   10  A    between atoms: C_13  and  C_14
REMARK   11  A    between atoms: C_13  and  C_15
REMARK   12  A    between atoms: C_16  and  C_51
REMARK   13  A    between atoms: C_17  and  O_49
REMARK   14  A    between atoms: C_19  and  O_47
REMARK   15  A    between atoms: C_23  and  O_45
REMARK   16  A    between atoms: C_32  and  O_43
REMARK   17  A    between atoms: C_33  and  O_42
REMARK   18  A    between atoms: C_35  and  C_41
REMARK   19  A    between atoms: O_43  and  C_44
REMARK   20  A    between atoms: O_45  and  C_46
REMARK   21  A    between atoms: O_47  and  C_48
REMARK   22  A    between atoms: O_49  and  C_50
REMARK   23  A    between atoms: O_53  and  C_54
REMARK                            x       y       z     vdW  Elec       q    Type
REMARK                         _______ _______ _______ _____ _____    ______ ____
ROOT
ATOM      1  C   UNL     1     142.458 167.101 189.242  0.00  0.00    +0.113 C 
ATOM      2  C   UNL     1     142.574 166.230 187.948  0.00  0.00    +0.020 C 
ATOM      3  C   UNL     1     143.996 165.875 187.427  0.00  0.00    +0.067 C 
ATOM      4  C   UNL     1     144.932 167.082 187.188  0.00  0.00    +0.003 C 
ATOM      5  C   UNL     1     146.286 166.648 186.577  0.00  0.00    +0.094 C 
ATOM      6  C   UNL     1     146.995 167.809 185.871  0.00  0.00    +0.145 C 
ATOM      7  C   UNL     1     147.958 168.677 186.674  0.00  0.00    +0.083 C 
ATOM      8  O   UNL     1     148.436 167.651 185.802  0.00  0.00    -0.363 OA
ATOM      9  C   UNL     1     146.446 168.306 184.530  0.00  0.00    +0.094 C 
ATOM     10  C   UNL     1     145.859 169.723 184.634  0.00  0.00    +0.003 C 
ATOM     11  C   UNL     1     145.220 170.255 183.332  0.00  0.00    +0.065 C 
ATOM     12  C   UNL     1     146.125 170.283 182.089  0.00  0.00    -0.008 C 
ATOM     13  C   UNL     1     147.115 171.403 182.153  0.00  0.00    -0.083 C 
ATOM     14  C   UNL     1     146.882 172.464 182.939  0.00  0.00    -0.059 C 
ATOM     15  C   UNL     1     145.635 172.609 183.790  0.00  0.00    +0.080 C 
ATOM     16  O   UNL     1     144.676 171.574 183.527  0.00  0.00    -0.369 OA
ATOM     17  C   UNL     1     144.987 173.976 183.525  0.00  0.00    +0.006 C 
ATOM     18  C   UNL     1     143.736 174.338 184.359  0.00  0.00    +0.090 C 
ATOM     19  C   UNL     1     143.896 174.199 185.903  0.00  0.00    +0.100 C 
ATOM     20  C   UNL     1     143.631 172.830 186.479  0.00  0.00    -0.051 C 
ATOM     21  C   UNL     1     143.124 172.546 187.697  0.00  0.00    -0.052 C 
ATOM     22  C   UNL     1     142.823 171.156 188.027  0.00  0.00    -0.052 C 
ATOM     23  C   UNL     1     142.076 170.761 189.068  0.00  0.00    +0.023 C 
ATOM     24  C   UNL     1     141.732 169.363 189.367  0.00  0.00    +0.332 C 
ATOM     25  O   UNL     1     140.750 169.083 190.037  0.00  0.00    -0.246 OA
ATOM     26  O   UNL     1     142.661 168.493 188.887  0.00  0.00    -0.458 OA
ATOM     27  H   UNL     1     141.423 166.965 189.569  0.00  0.00    +0.074 HD
ATOM     28  H   UNL     1     142.091 165.275 188.200  0.00  0.00    +0.036 HD
ATOM     29  H   UNL     1     143.882 165.376 186.455  0.00  0.00    +0.060 HD
ATOM     30  H   UNL     1     145.135 167.603 188.131  0.00  0.00    +0.032 HD
ATOM     31  H   UNL     1     144.429 167.790 186.522  0.00  0.00    +0.032 HD
ATOM     32  H   UNL     1     146.116 165.839 185.858  0.00  0.00    +0.063 HD
ATOM     33  H   UNL     1     148.157 169.700 186.383  0.00  0.00    +0.059 HD
ATOM     34  H   UNL     1     148.042 168.512 187.743  0.00  0.00    +0.059 HD
ATOM     35  H   UNL     1     147.272 168.331 183.805  0.00  0.00    +0.063 HD
ATOM     36  H   UNL     1     146.638 170.411 184.977  0.00  0.00    +0.032 HD
ATOM     37  H   UNL     1     145.090 169.748 185.416  0.00  0.00    +0.032 HD
ATOM     38  H   UNL     1     144.361 169.614 183.099  0.00  0.00    +0.060 HD
ATOM     39  H   UNL     1     145.503 170.456 181.202  0.00  0.00    +0.033 HD
ATOM     40  H   UNL     1     146.633 169.328 181.936  0.00  0.00    +0.033 HD
ATOM     41  H   UNL     1     148.010 171.352 181.540  0.00  0.00    +0.057 HD
ATOM     42  H   UNL     1     147.619 173.261 182.997  0.00  0.00    +0.059 HD
ATOM     43  H   UNL     1     145.943 172.546 184.837  0.00  0.00    +0.064 HD
ATOM     44  H   UNL     1     145.738 174.760 183.693  0.00  0.00    +0.032 HD
ATOM     45  H   UNL     1     144.718 174.024 182.463  0.00  0.00    +0.032 HD
ATOM     46  H   UNL     1     143.570 175.411 184.180  0.00  0.00    +0.063 HD
ATOM     47  H   UNL     1     143.167 174.894 186.338  0.00  0.00    +0.066 HD
ATOM     48  H   UNL     1     143.768 172.012 185.778  0.00  0.00    +0.060 HD
ATOM     49  H   UNL     1     143.201 170.404 187.337  0.00  0.00    +0.062 HD
ATOM     50  H   UNL     1     141.610 171.466 189.745  0.00  0.00    +0.069 HD
ENDROOT
BRANCH  21  51
ATOM     51  C   UNL     1     142.852 173.598 188.743  0.00  0.00    -0.040 C 
ATOM     52  H   UNL     1     143.567 173.573 189.572  0.00  0.00    +0.028 HD
ATOM     53  H   UNL     1     142.899 174.600 188.298  0.00  0.00    +0.028 HD
ATOM     54  H   UNL     1     141.863 173.462 189.196  0.00  0.00    +0.028 HD
ENDBRANCH  21  51
BRANCH   2  55
ATOM     55  C   UNL     1     141.732 166.836 186.813  0.00  0.00    -0.057 C 
ATOM     56  H   UNL     1     140.670 166.601 186.954  0.00  0.00    +0.023 HD
ATOM     57  H   UNL     1     141.830 167.924 186.759  0.00  0.00    +0.023 HD
ATOM     58  H   UNL     1     142.035 166.422 185.844  0.00  0.00    +0.023 HD
ENDBRANCH   2  55
BRANCH   1  59
ATOM     59  C   UNL     1     143.395 166.721 190.426  0.00  0.00    +0.020 C 
ATOM     60  H   UNL     1     143.970 165.849 190.100  0.00  0.00    +0.036 HD
BRANCH  59  61
ATOM     61  C   UNL     1     144.499 167.753 190.703  0.00  0.00    -0.057 C 
ATOM     62  H   UNL     1     144.241 168.726 190.269  0.00  0.00    +0.023 HD
ATOM     63  H   UNL     1     144.621 167.915 191.780  0.00  0.00    +0.023 HD
ATOM     64  H   UNL     1     145.467 167.445 190.300  0.00  0.00    +0.023 HD
ENDBRANCH  59  61
BRANCH  59  65
ATOM     65  C   UNL     1     142.630 166.322 191.723  0.00  0.00    +0.064 C 
ATOM     66  H   UNL     1     141.648 166.805 191.750  0.00  0.00    +0.060 HD
BRANCH  65  67
ATOM     67  C   UNL     1     143.323 166.583 193.100  0.00  0.00    -0.017 C 
ATOM     68  H   UNL     1     143.960 167.462 192.991  0.00  0.00    +0.032 HD
BRANCH  67  69
ATOM     69  C   UNL     1     142.299 166.856 194.204  0.00  0.00    -0.060 C 
ATOM     70  H   UNL     1     142.599 167.690 194.843  0.00  0.00    +0.023 HD
ATOM     71  H   UNL     1     142.158 165.976 194.840  0.00  0.00    +0.023 HD
ATOM     72  H   UNL     1     141.331 167.146 193.793  0.00  0.00    +0.023 HD
ENDBRANCH  67  69
BRANCH  67  73
ATOM     73  C   UNL     1     144.252 165.391 193.461  0.00  0.00    -0.046 C 
ATOM     74  H   UNL     1     143.633 164.633 193.961  0.00  0.00    +0.027 HD
ATOM     75  H   UNL     1     144.621 164.920 192.541  0.00  0.00    +0.027 HD
BRANCH  73  76
ATOM     76  C   UNL     1     145.459 165.648 194.373  0.00  0.00    -0.026 C 
ATOM     77  H   UNL     1     145.346 166.580 194.938  0.00  0.00    +0.029 HD
ATOM     78  H   UNL     1     145.433 164.872 195.153  0.00  0.00    +0.029 HD
BRANCH  76  83
ATOM     79  C   UNL     1     148.704 166.106 195.218  0.00  0.00    +0.059 C 
ATOM     80  C   UNL     1     149.623 166.432 194.046  0.00  0.00    -0.000 C 
ATOM     81  C   UNL     1     148.828 166.932 192.833  0.00  0.00    +0.063 C 
ATOM     82  C   UNL     1     147.317 166.877 193.062  0.00  0.00    -0.000 C 
ATOM     83  C   UNL     1     146.863 165.581 193.740  0.00  0.00    +0.061 C 
ATOM     84  O   UNL     1     147.743 165.144 194.793  0.00  0.00    -0.373 OA
ATOM     85  H   UNL     1     148.189 167.004 195.582  0.00  0.00    +0.059 HD
ATOM     86  H   UNL     1     150.356 167.189 194.343  0.00  0.00    +0.032 HD
ATOM     87  H   UNL     1     150.190 165.533 193.769  0.00  0.00    +0.032 HD
ATOM     88  H   UNL     1     149.093 167.976 192.621  0.00  0.00    +0.060 HD
ATOM     89  H   UNL     1     147.037 167.733 193.686  0.00  0.00    +0.032 HD
ATOM     90  H   UNL     1     146.804 166.987 192.103  0.00  0.00    +0.032 HD
ATOM     91  H   UNL     1     146.868 164.775 192.996  0.00  0.00    +0.060 HD
BRANCH  79  92
ATOM     92  C   UNL     1     149.487 165.505 196.379  0.00  0.00    -0.039 C 
ATOM     93  H   UNL     1     148.950 164.668 196.831  0.00  0.00    +0.025 HD
ATOM     94  H   UNL     1     150.462 165.151 196.035  0.00  0.00    +0.025 HD
ATOM     95  H   UNL     1     149.681 166.259 197.152  0.00  0.00    +0.025 HD
ENDBRANCH  79  92
BRANCH  81  96
ATOM     96  O   UNL     1     149.136 166.147 191.673  0.00  0.00    -0.380 OA
BRANCH  96  97
ATOM     97  C   UNL     1     149.264 166.927 190.489  0.00  0.00    +0.037 C 
ATOM     98  H   UNL     1     148.304 167.397 190.246  0.00  0.00    +0.052 HD
ATOM     99  H   UNL     1     149.544 166.263 189.667  0.00  0.00    +0.052 HD
ATOM    100  H   UNL     1     150.039 167.694 190.596  0.00  0.00    +0.052 HD
ENDBRANCH  96  97
ENDBRANCH  81  96
ENDBRANCH  76  83
ENDBRANCH  73  76
ENDBRANCH  67  73
ENDBRANCH  65  67
BRANCH  65 101
ATOM    101  O   UNL     1     142.370 164.912 191.626  0.00  0.00    -0.391 OA
ATOM    102  H   UNL     1     143.079 164.466 192.135  0.00  0.00    +0.210 HD
ENDBRANCH  65 101
ENDBRANCH  59  65
ENDBRANCH   1  59
BRANCH  19 103
ATOM    103  O   UNL     1     145.191 174.638 186.310  0.00  0.00    -0.385 OA
ATOM    104  H   UNL     1     145.074 175.191 187.104  0.00  0.00    +0.210 HD
ENDBRANCH  19 103
BRANCH  18 105
ATOM    105  O   UNL     1     142.564 173.630 183.932  0.00  0.00    -0.377 OA
BRANCH 105 106
ATOM    106  C   UNL     1     142.148 173.956 182.613  0.00  0.00    +0.037 C 
ATOM    107  H   UNL     1     141.088 173.733 182.449  0.00  0.00    +0.052 HD
ATOM    108  H   UNL     1     142.303 175.028 182.462  0.00  0.00    +0.052 HD
ATOM    109  H   UNL     1     142.760 173.413 181.886  0.00  0.00    +0.052 HD
ENDBRANCH 105 106
ENDBRANCH  18 105
BRANCH   9 110
ATOM    110  O   UNL     1     145.416 167.429 184.047  0.00  0.00    -0.377 OA
BRANCH 110 111
ATOM    111  C   UNL     1     145.854 166.619 182.962  0.00  0.00    +0.037 C 
ATOM    112  H   UNL     1     146.771 166.089 183.230  0.00  0.00    +0.052 HD
ATOM    113  H   UNL     1     146.068 167.272 182.112  0.00  0.00    +0.052 HD
ATOM    114  H   UNL     1     145.080 165.904 182.664  0.00  0.00    +0.052 HD
ENDBRANCH 110 111
ENDBRANCH   9 110
BRANCH   5 115
ATOM    115  O   UNL     1     147.098 166.154 187.662  0.00  0.00    -0.377 OA
BRANCH 115 116
ATOM    116  C   UNL     1     147.725 164.913 187.369  0.00  0.00    +0.037 C 
ATOM    117  H   UNL     1     147.047 164.081 187.581  0.00  0.00    +0.052 HD
ATOM    118  H   UNL     1     148.048 164.869 186.325  0.00  0.00    +0.052 HD
ATOM    119  H   UNL     1     148.604 164.814 188.011  0.00  0.00    +0.052 HD
ENDBRANCH 115 116
ENDBRANCH   5 115
BRANCH   3 120
ATOM    120  O   UNL     1     144.614 164.946 188.334  0.00  0.00    -0.379 OA
BRANCH 120 121
ATOM    121  C   UNL     1     144.015 163.656 188.312  0.00  0.00    +0.037 C 
ATOM    122  H   UNL     1     144.356 163.107 189.193  0.00  0.00    +0.052 HD
ATOM    123  H   UNL     1     144.328 163.106 187.421  0.00  0.00    +0.052 HD
ATOM    124  H   UNL     1     142.925 163.726 188.347  0.00  0.00    +0.052 HD
ENDBRANCH 120 121
ENDBRANCH   3 120
TORSDOF 23
ENDMDL
MODEL 8
REMARK VINA RESULT:      -5.0      2.814      9.651
REMARK  Name = Lobophorolide_conf3
REMARK  23 active torsions:
REMARK  status: ('A' for Active; 'I' for Inactive)
REMARK    1  A    between atoms: C_1  and  C_2
REMARK    2  A    between atoms: C_4  and  O_53
REMARK    3  A    between atoms: C_6  and  C_8
REMARK    4  A    between atoms: C_8  and  C_9
REMARK    5  A    between atoms: C_9  and  C_10
REMARK    6  A    between atoms: C_10  and  C_11
REMARK    7  A    between atoms: C_10  and  C_12
REMARK    8  A    between atoms: C_12  and  C_13
REMARK    9  A    between atoms: C_12  and  O_52
REMARK   10  A    between atoms: C_13  and  C_14
REMARK   11  A    between atoms: C_13  and  C_15
REMARK   12  A    between atoms: C_16  and  C_51
REMARK   13  A    between atoms: C_17  and  O_49
REMARK   14  A    between atoms: C_19  and  O_47
REMARK   15  A    between atoms: C_23  and  O_45
REMARK   16  A    between atoms: C_32  and  O_43
REMARK   17  A    between atoms: C_33  and  O_42
REMARK   18  A    between atoms: C_35  and  C_41
REMARK   19  A    between atoms: O_43  and  C_44
REMARK   20  A    between atoms: O_45  and  C_46
REMARK   21  A    between atoms: O_47  and  C_48
REMARK   22  A    between atoms: O_49  and  C_50
REMARK   23  A    between atoms: O_53  and  C_54
REMARK                            x       y       z     vdW  Elec       q    Type
REMARK                         _______ _______ _______ _____ _____    ______ ____
ROOT
ATOM      1  C   UNL     1     154.113 164.817 188.429  0.00  0.00    +0.113 C 
ATOM      2  C   UNL     1     153.467 163.481 187.937  0.00  0.00    +0.020 C 
ATOM      3  C   UNL     1     152.569 163.524 186.667  0.00  0.00    +0.067 C 
ATOM      4  C   UNL     1     151.406 164.544 186.715  0.00  0.00    +0.003 C 
ATOM      5  C   UNL     1     150.508 164.450 185.460  0.00  0.00    +0.094 C 
ATOM      6  C   UNL     1     149.117 165.045 185.705  0.00  0.00    +0.145 C 
ATOM      7  C   UNL     1     148.889 166.524 185.410  0.00  0.00    +0.083 C 
ATOM      8  O   UNL     1     148.465 165.512 184.495  0.00  0.00    -0.363 OA
ATOM      9  C   UNL     1     148.126 164.273 186.583  0.00  0.00    +0.094 C 
ATOM     10  C   UNL     1     147.839 164.999 187.907  0.00  0.00    +0.003 C 
ATOM     11  C   UNL     1     146.905 164.237 188.872  0.00  0.00    +0.065 C 
ATOM     12  C   UNL     1     145.524 163.844 188.320  0.00  0.00    -0.008 C 
ATOM     13  C   UNL     1     144.607 165.024 188.239  0.00  0.00    -0.083 C 
ATOM     14  C   UNL     1     144.836 166.108 188.995  0.00  0.00    -0.059 C 
ATOM     15  C   UNL     1     145.999 166.215 189.964  0.00  0.00    +0.080 C 
ATOM     16  O   UNL     1     146.711 164.976 190.094  0.00  0.00    -0.369 OA
ATOM     17  C   UNL     1     145.481 166.647 191.343  0.00  0.00    +0.006 C 
ATOM     18  C   UNL     1     146.536 166.881 192.451  0.00  0.00    +0.090 C 
ATOM     19  C   UNL     1     147.700 167.846 192.076  0.00  0.00    +0.100 C 
ATOM     20  C   UNL     1     148.880 167.223 191.370  0.00  0.00    -0.051 C 
ATOM     21  C   UNL     1     150.171 167.605 191.458  0.00  0.00    -0.052 C 
ATOM     22  C   UNL     1     151.190 166.796 190.793  0.00  0.00    -0.052 C 
ATOM     23  C   UNL     1     152.508 166.891 191.017  0.00  0.00    +0.023 C 
ATOM     24  C   UNL     1     153.527 166.039 190.384  0.00  0.00    +0.332 C 
ATOM     25  O   UNL     1     154.620 165.870 190.902  0.00  0.00    -0.246 OA
ATOM     26  O   UNL     1     153.121 165.569 189.174  0.00  0.00    -0.458 OA
ATOM     27  H   UNL     1     154.906 164.500 189.114  0.00  0.00    +0.074 HD
ATOM     28  H   UNL     1     154.314 162.825 187.693  0.00  0.00    +0.036 HD
ATOM     29  H   UNL     1     152.106 162.535 186.550  0.00  0.00    +0.060 HD
ATOM     30  H   UNL     1     151.796 165.566 186.781  0.00  0.00    +0.032 HD
ATOM     31  H   UNL     1     150.814 164.358 187.617  0.00  0.00    +0.032 HD
ATOM     32  H   UNL     1     150.404 163.399 185.166  0.00  0.00    +0.063 HD
ATOM     33  H   UNL     1     148.113 167.078 185.921  0.00  0.00    +0.059 HD
ATOM     34  H   UNL     1     149.739 167.136 185.129  0.00  0.00    +0.059 HD
ATOM     35  H   UNL     1     147.179 164.177 186.034  0.00  0.00    +0.063 HD
ATOM     36  H   UNL     1     147.429 165.990 187.693  0.00  0.00    +0.032 HD
ATOM     37  H   UNL     1     148.781 165.188 188.436  0.00  0.00    +0.032 HD
ATOM     38  H   UNL     1     147.416 163.312 189.167  0.00  0.00    +0.060 HD
ATOM     39  H   UNL     1     145.060 163.124 189.005  0.00  0.00    +0.033 HD
ATOM     40  H   UNL     1     145.602 163.350 187.349  0.00  0.00    +0.033 HD
ATOM     41  H   UNL     1     143.748 164.980 187.578  0.00  0.00    +0.057 HD
ATOM     42  H   UNL     1     144.178 166.969 188.911  0.00  0.00    +0.059 HD
ATOM     43  H   UNL     1     146.681 166.975 189.573  0.00  0.00    +0.064 HD
ATOM     44  H   UNL     1     144.907 167.576 191.229  0.00  0.00    +0.032 HD
ATOM     45  H   UNL     1     144.777 165.885 191.695  0.00  0.00    +0.032 HD
ATOM     46  H   UNL     1     145.993 167.384 193.265  0.00  0.00    +0.063 HD
ATOM     47  H   UNL     1     148.057 168.260 193.027  0.00  0.00    +0.066 HD
ATOM     48  H   UNL     1     148.650 166.309 190.831  0.00  0.00    +0.060 HD
ATOM     49  H   UNL     1     150.827 166.033 190.107  0.00  0.00    +0.062 HD
ATOM     50  H   UNL     1     152.923 167.577 191.745  0.00  0.00    +0.069 HD
ENDROOT
BRANCH  21  51
ATOM     51  C   UNL     1     150.620 168.832 192.210  0.00  0.00    -0.040 C 
ATOM     52  H   UNL     1     149.807 169.540 192.399  0.00  0.00    +0.028 HD
ATOM     53  H   UNL     1     151.044 168.550 193.182  0.00  0.00    +0.028 HD
ATOM     54  H   UNL     1     151.377 169.389 191.646  0.00  0.00    +0.028 HD
ENDBRANCH  21  51
BRANCH   2  55
ATOM     55  C   UNL     1     152.720 162.787 189.088  0.00  0.00    -0.057 C 
ATOM     56  H   UNL     1     152.207 161.887 188.726  0.00  0.00    +0.023 HD
ATOM     57  H   UNL     1     153.391 162.487 189.897  0.00  0.00    +0.023 HD
ATOM     58  H   UNL     1     151.958 163.452 189.511  0.00  0.00    +0.023 HD
ENDBRANCH   2  55
BRANCH   1  59
ATOM     59  C   UNL     1     154.752 165.728 187.340  0.00  0.00    +0.020 C 
ATOM     60  H   UNL     1     154.601 165.219 186.382  0.00  0.00    +0.036 HD
BRANCH  59  61
ATOM     61  C   UNL     1     154.006 167.055 187.123  0.00  0.00    -0.057 C 
ATOM     62  H   UNL     1     153.523 167.386 188.049  0.00  0.00    +0.023 HD
ATOM     63  H   UNL     1     154.703 167.850 186.833  0.00  0.00    +0.023 HD
ATOM     64  H   UNL     1     153.242 166.980 186.345  0.00  0.00    +0.023 HD
ENDBRANCH  59  61
BRANCH  59  65
ATOM     65  C   UNL     1     156.283 165.942 187.525  0.00  0.00    +0.064 C 
ATOM     66  H   UNL     1     156.519 167.010 187.544  0.00  0.00    +0.060 HD
BRANCH  65  67
ATOM     67  C   UNL     1     157.253 165.261 186.505  0.00  0.00    -0.017 C 
ATOM     68  H   UNL     1     156.661 164.938 185.647  0.00  0.00    +0.032 HD
BRANCH  67  69
ATOM     69  C   UNL     1     158.329 166.233 186.016  0.00  0.00    -0.060 C 
ATOM     70  H   UNL     1     159.333 165.804 186.089  0.00  0.00    +0.023 HD
ATOM     71  H   UNL     1     158.316 167.163 186.594  0.00  0.00    +0.023 HD
ATOM     72  H   UNL     1     158.201 166.479 184.961  0.00  0.00    +0.023 HD
ENDBRANCH  67  69
BRANCH  67  73
ATOM     73  C   UNL     1     157.876 163.984 187.133  0.00  0.00    -0.046 C 
ATOM     74  H   UNL     1     158.857 163.832 186.662  0.00  0.00    +0.027 HD
ATOM     75  H   UNL     1     158.079 164.160 188.198  0.00  0.00    +0.027 HD
BRANCH  73  76
ATOM     76  C   UNL     1     157.116 162.657 187.013  0.00  0.00    -0.026 C 
ATOM     77  H   UNL     1     156.188 162.776 186.442  0.00  0.00    +0.029 HD
ATOM     78  H   UNL     1     157.727 162.004 186.373  0.00  0.00    +0.029 HD
BRANCH  76  83
ATOM     79  C   UNL     1     158.623 161.895 189.945  0.00  0.00    +0.059 C 
ATOM     80  C   UNL     1     158.101 160.628 190.614  0.00  0.00    -0.000 C 
ATOM     81  C   UNL     1     157.352 159.736 189.616  0.00  0.00    +0.063 C 
ATOM     82  C   UNL     1     157.221 160.383 188.237  0.00  0.00    -0.000 C 
ATOM     83  C   UNL     1     156.844 161.867 188.307  0.00  0.00    +0.061 C 
ATOM     84  O   UNL     1     157.526 162.585 189.352  0.00  0.00    -0.373 OA
ATOM     85  H   UNL     1     159.369 161.661 189.176  0.00  0.00    +0.059 HD
ATOM     86  H   UNL     1     158.931 160.068 191.057  0.00  0.00    +0.032 HD
ATOM     87  H   UNL     1     157.430 160.903 191.438  0.00  0.00    +0.032 HD
ATOM     88  H   UNL     1     157.892 158.789 189.488  0.00  0.00    +0.060 HD
ATOM     89  H   UNL     1     158.181 160.275 187.719  0.00  0.00    +0.032 HD
ATOM     90  H   UNL     1     156.470 159.842 187.655  0.00  0.00    +0.032 HD
ATOM     91  H   UNL     1     155.775 161.945 188.542  0.00  0.00    +0.060 HD
BRANCH  79  92
ATOM     92  C   UNL     1     159.267 162.827 190.964  0.00  0.00    -0.039 C 
ATOM     93  H   UNL     1     159.429 162.323 191.919  0.00  0.00    +0.025 HD
ATOM     94  H   UNL     1     160.228 163.190 190.591  0.00  0.00    +0.025 HD
ATOM     95  H   UNL     1     158.642 163.713 191.134  0.00  0.00    +0.025 HD
ENDBRANCH  79  92
BRANCH  81  96
ATOM     96  O   UNL     1     156.035 159.439 190.100  0.00  0.00    -0.380 OA
BRANCH  96  97
ATOM     97  C   UNL     1     155.911 158.113 190.602  0.00  0.00    +0.037 C 
ATOM     98  H   UNL     1     156.294 158.064 191.628  0.00  0.00    +0.052 HD
ATOM     99  H   UNL     1     156.511 157.449 189.974  0.00  0.00    +0.052 HD
ATOM    100  H   UNL     1     154.871 157.769 190.575  0.00  0.00    +0.052 HD
ENDBRANCH  96  97
ENDBRANCH  81  96
ENDBRANCH  76  83
ENDBRANCH  73  76
ENDBRANCH  67  73
ENDBRANCH  65  67
BRANCH  65 101
ATOM    101  O   UNL     1     156.609 165.446 188.833  0.00  0.00    -0.391 OA
ATOM    102  H   UNL     1     157.509 165.062 188.766  0.00  0.00    +0.210 HD
ENDBRANCH  65 101
ENDBRANCH  59  65
ENDBRANCH   1  59
BRANCH  19 103
ATOM    103  O   UNL     1     147.210 168.937 191.299  0.00  0.00    -0.385 OA
ATOM    104  H   UNL     1     146.710 169.520 191.898  0.00  0.00    +0.210 HD
ENDBRANCH  19 103
BRANCH  18 105
ATOM    105  O   UNL     1     147.075 165.656 192.967  0.00  0.00    -0.377 OA
BRANCH 105 106
ATOM    106  C   UNL     1     146.535 165.279 194.226  0.00  0.00    +0.037 C 
ATOM    107  H   UNL     1     145.599 164.721 194.122  0.00  0.00    +0.052 HD
ATOM    108  H   UNL     1     147.264 164.640 194.733  0.00  0.00    +0.052 HD
ATOM    109  H   UNL     1     146.372 166.171 194.841  0.00  0.00    +0.052 HD
ENDBRANCH 105 106
ENDBRANCH  18 105
BRANCH   9 110
ATOM    110  O   UNL     1     148.633 162.965 186.889  0.00  0.00    -0.377 OA
BRANCH 110 111
ATOM    111  C   UNL     1     147.969 161.938 186.162  0.00  0.00    +0.037 C 
ATOM    112  H   UNL     1     147.191 161.480 186.778  0.00  0.00    +0.052 HD
ATOM    113  H   UNL     1     148.703 161.170 185.905  0.00  0.00    +0.052 HD
ATOM    114  H   UNL     1     147.534 162.327 185.235  0.00  0.00    +0.052 HD
ENDBRANCH 110 111
ENDBRANCH   9 110
BRANCH   5 115
ATOM    115  O   UNL     1     151.179 165.172 184.406  0.00  0.00    -0.377 OA
BRANCH 115 116
ATOM    116  C   UNL     1     151.216 164.458 183.178  0.00  0.00    +0.037 C 
ATOM    117  H   UNL     1     151.091 165.142 182.333  0.00  0.00    +0.052 HD
ATOM    118  H   UNL     1     152.153 163.906 183.069  0.00  0.00    +0.052 HD
ATOM    119  H   UNL     1     150.388 163.746 183.171  0.00  0.00    +0.052 HD
ENDBRANCH 115 116
ENDBRANCH   5 115
BRANCH   3 120
ATOM    120  O   UNL     1     153.391 163.771 185.514  0.00  0.00    -0.379 OA
BRANCH 120 121
ATOM    121  C   UNL     1     153.992 162.594 184.990  0.00  0.00    +0.037 C 
ATOM    122  H   UNL     1     155.061 162.628 185.214  0.00  0.00    +0.052 HD
ATOM    123  H   UNL     1     153.868 162.553 183.905  0.00  0.00    +0.052 HD
ATOM    124  H   UNL     1     153.570 161.697 185.451  0.00  0.00    +0.052 HD
ENDBRANCH 120 121
ENDBRANCH   3 120
TORSDOF 23
ENDMDL
MODEL 9
REMARK VINA RESULT:      -5.0      9.627     16.271
REMARK  Name = Lobophorolide_conf3
REMARK  23 active torsions:
REMARK  status: ('A' for Active; 'I' for Inactive)
REMARK    1  A    between atoms: C_1  and  C_2
REMARK    2  A    between atoms: C_4  and  O_53
REMARK    3  A    between atoms: C_6  and  C_8
REMARK    4  A    between atoms: C_8  and  C_9
REMARK    5  A    between atoms: C_9  and  C_10
REMARK    6  A    between atoms: C_10  and  C_11
REMARK    7  A    between atoms: C_10  and  C_12
REMARK    8  A    between atoms: C_12  and  C_13
REMARK    9  A    between atoms: C_12  and  O_52
REMARK   10  A    between atoms: C_13  and  C_14
REMARK   11  A    between atoms: C_13  and  C_15
REMARK   12  A    between atoms: C_16  and  C_51
REMARK   13  A    between atoms: C_17  and  O_49
REMARK   14  A    between atoms: C_19  and  O_47
REMARK   15  A    between atoms: C_23  and  O_45
REMARK   16  A    between atoms: C_32  and  O_43
REMARK   17  A    between atoms: C_33  and  O_42
REMARK   18  A    between atoms: C_35  and  C_41
REMARK   19  A    between atoms: O_43  and  C_44
REMARK   20  A    between atoms: O_45  and  C_46
REMARK   21  A    between atoms: O_47  and  C_48
REMARK   22  A    between atoms: O_49  and  C_50
REMARK   23  A    between atoms: O_53  and  C_54
REMARK                            x       y       z     vdW  Elec       q    Type
REMARK                         _______ _______ _______ _____ _____    ______ ____
ROOT
ATOM      1  C   UNL     1     143.395 169.892 189.178  0.00  0.00    +0.113 C 
ATOM      2  C   UNL     1     142.778 169.928 187.741  0.00  0.00    +0.020 C 
ATOM      3  C   UNL     1     143.631 170.537 186.591  0.00  0.00    +0.067 C 
ATOM      4  C   UNL     1     144.152 171.971 186.845  0.00  0.00    +0.003 C 
ATOM      5  C   UNL     1     144.902 172.535 185.615  0.00  0.00    +0.094 C 
ATOM      6  C   UNL     1     144.968 174.066 185.636  0.00  0.00    +0.145 C 
ATOM      7  C   UNL     1     146.155 174.741 186.316  0.00  0.00    +0.083 C 
ATOM      8  O   UNL     1     146.091 174.609 184.894  0.00  0.00    -0.363 OA
ATOM      9  C   UNL     1     143.694 174.865 185.340  0.00  0.00    +0.094 C 
ATOM     10  C   UNL     1     143.187 175.625 186.577  0.00  0.00    +0.003 C 
ATOM     11  C   UNL     1     141.863 176.391 186.366  0.00  0.00    +0.065 C 
ATOM     12  C   UNL     1     141.844 177.422 185.224  0.00  0.00    -0.008 C 
ATOM     13  C   UNL     1     142.595 178.663 185.590  0.00  0.00    -0.083 C 
ATOM     14  C   UNL     1     142.802 178.970 186.878  0.00  0.00    -0.059 C 
ATOM     15  C   UNL     1     142.300 178.116 188.027  0.00  0.00    +0.080 C 
ATOM     16  O   UNL     1     141.450 177.050 187.579  0.00  0.00    -0.369 OA
ATOM     17  C   UNL     1     141.528 178.994 189.022  0.00  0.00    +0.006 C 
ATOM     18  C   UNL     1     140.998 178.309 190.304  0.00  0.00    +0.090 C 
ATOM     19  C   UNL     1     142.055 177.509 191.124  0.00  0.00    +0.100 C 
ATOM     20  C   UNL     1     142.283 176.078 190.700  0.00  0.00    -0.051 C 
ATOM     21  C   UNL     1     142.623 175.042 191.494  0.00  0.00    -0.052 C 
ATOM     22  C   UNL     1     142.677 173.701 190.916  0.00  0.00    -0.052 C 
ATOM     23  C   UNL     1     142.727 172.565 191.624  0.00  0.00    +0.023 C 
ATOM     24  C   UNL     1     142.729 171.215 191.039  0.00  0.00    +0.332 C 
ATOM     25  O   UNL     1     142.361 170.246 191.685  0.00  0.00    -0.246 OA
ATOM     26  O   UNL     1     143.247 171.202 189.782  0.00  0.00    -0.458 OA
ATOM     27  H   UNL     1     142.771 169.177 189.723  0.00  0.00    +0.074 HD
ATOM     28  H   UNL     1     142.609 168.875 187.475  0.00  0.00    +0.036 HD
ATOM     29  H   UNL     1     142.995 170.594 185.697  0.00  0.00    +0.060 HD
ATOM     30  H   UNL     1     144.839 171.984 187.699  0.00  0.00    +0.032 HD
ATOM     31  H   UNL     1     143.303 172.614 187.095  0.00  0.00    +0.032 HD
ATOM     32  H   UNL     1     144.395 172.209 184.700  0.00  0.00    +0.063 HD
ATOM     33  H   UNL     1     146.069 175.740 186.719  0.00  0.00    +0.059 HD
ATOM     34  H   UNL     1     146.870 174.123 186.849  0.00  0.00    +0.059 HD
ATOM     35  H   UNL     1     143.922 175.602 184.557  0.00  0.00    +0.063 HD
ATOM     36  H   UNL     1     143.965 176.310 186.924  0.00  0.00    +0.032 HD
ATOM     37  H   UNL     1     143.035 174.922 187.405  0.00  0.00    +0.032 HD
ATOM     38  H   UNL     1     141.081 175.651 186.154  0.00  0.00    +0.060 HD
ATOM     39  H   UNL     1     140.806 177.720 185.034  0.00  0.00    +0.033 HD
ATOM     40  H   UNL     1     142.227 177.000 184.292  0.00  0.00    +0.033 HD
ATOM     41  H   UNL     1     142.951 179.317 184.799  0.00  0.00    +0.057 HD
ATOM     42  H   UNL     1     143.370 179.862 187.133  0.00  0.00    +0.059 HD
ATOM     43  H   UNL     1     143.175 177.684 188.521  0.00  0.00    +0.064 HD
ATOM     44  H   UNL     1     142.174 179.827 189.332  0.00  0.00    +0.032 HD
ATOM     45  H   UNL     1     140.677 179.438 188.494  0.00  0.00    +0.032 HD
ATOM     46  H   UNL     1     140.683 179.132 190.963  0.00  0.00    +0.063 HD
ATOM     47  H   UNL     1     141.682 177.499 192.155  0.00  0.00    +0.066 HD
ATOM     48  H   UNL     1     142.033 175.871 189.664  0.00  0.00    +0.060 HD
ATOM     49  H   UNL     1     142.621 173.642 189.831  0.00  0.00    +0.062 HD
ATOM     50  H   UNL     1     142.707 172.556 192.707  0.00  0.00    +0.069 HD
ENDROOT
BRANCH  21  51
ATOM     51  C   UNL     1     142.954 175.197 192.958  0.00  0.00    -0.040 C 
ATOM     52  H   UNL     1     142.650 176.166 193.365  0.00  0.00    +0.028 HD
ATOM     53  H   UNL     1     142.452 174.419 193.546  0.00  0.00    +0.028 HD
ATOM     54  H   UNL     1     144.034 175.124 193.129  0.00  0.00    +0.028 HD
ENDBRANCH  21  51
BRANCH   2  55
ATOM     55  C   UNL     1     141.386 170.580 187.768  0.00  0.00    -0.057 C 
ATOM     56  H   UNL     1     140.949 170.513 188.772  0.00  0.00    +0.023 HD
ATOM     57  H   UNL     1     141.416 171.636 187.486  0.00  0.00    +0.023 HD
ATOM     58  H   UNL     1     140.706 170.067 187.078  0.00  0.00    +0.023 HD
ENDBRANCH   2  55
BRANCH   1  59
ATOM     59  C   UNL     1     144.876 169.427 189.291  0.00  0.00    +0.020 C 
ATOM     60  H   UNL     1     145.166 169.069 188.298  0.00  0.00    +0.036 HD
BRANCH  59  61
ATOM     61  C   UNL     1     145.873 170.573 189.527  0.00  0.00    -0.057 C 
ATOM     62  H   UNL     1     145.521 171.237 190.325  0.00  0.00    +0.023 HD
ATOM     63  H   UNL     1     146.845 170.185 189.851  0.00  0.00    +0.023 HD
ATOM     64  H   UNL     1     146.035 171.174 188.629  0.00  0.00    +0.023 HD
ENDBRANCH  59  61
BRANCH  59  65
ATOM     65  C   UNL     1     145.087 168.255 190.295  0.00  0.00    +0.064 C 
ATOM     66  H   UNL     1     145.585 168.613 191.200  0.00  0.00    +0.060 HD
BRANCH  65  67
ATOM     67  C   UNL     1     145.856 166.987 189.800  0.00  0.00    -0.017 C 
ATOM     68  H   UNL     1     145.234 166.116 190.013  0.00  0.00    +0.032 HD
BRANCH  67  69
ATOM     69  C   UNL     1     146.122 167.041 188.294  0.00  0.00    -0.060 C 
ATOM     70  H   UNL     1     145.713 166.170 187.774  0.00  0.00    +0.023 HD
ATOM     71  H   UNL     1     147.195 167.088 188.082  0.00  0.00    +0.023 HD
ATOM     72  H   UNL     1     145.639 167.902 187.830  0.00  0.00    +0.023 HD
ENDBRANCH  67  69
BRANCH  67  73
ATOM     73  C   UNL     1     147.172 166.813 190.609  0.00  0.00    -0.046 C 
ATOM     74  H   UNL     1     147.127 165.830 191.099  0.00  0.00    +0.027 HD
ATOM     75  H   UNL     1     148.024 166.766 189.918  0.00  0.00    +0.027 HD
BRANCH  73  76
ATOM     76  C   UNL     1     147.507 167.838 191.700  0.00  0.00    -0.026 C 
ATOM     77  H   UNL     1     146.600 168.262 192.146  0.00  0.00    +0.029 HD
ATOM     78  H   UNL     1     147.960 167.275 192.530  0.00  0.00    +0.029 HD
BRANCH  76  83
ATOM     79  C   UNL     1     150.690 168.784 192.354  0.00  0.00    +0.059 C 
ATOM     80  C   UNL     1     150.959 170.273 192.164  0.00  0.00    -0.000 C 
ATOM     81  C   UNL     1     149.656 171.083 192.172  0.00  0.00    +0.063 C 
ATOM     82  C   UNL     1     148.415 170.193 192.257  0.00  0.00    -0.000 C 
ATOM     83  C   UNL     1     148.498 168.964 191.346  0.00  0.00    +0.061 C 
ATOM     84  O   UNL     1     149.798 168.346 191.331  0.00  0.00    -0.373 OA
ATOM     85  H   UNL     1     150.248 168.581 193.337  0.00  0.00    +0.059 HD
ATOM     86  H   UNL     1     151.623 170.638 192.954  0.00  0.00    +0.032 HD
ATOM     87  H   UNL     1     151.484 170.428 191.212  0.00  0.00    +0.032 HD
ATOM     88  H   UNL     1     149.642 171.755 193.039  0.00  0.00    +0.060 HD
ATOM     89  H   UNL     1     148.301 169.869 193.297  0.00  0.00    +0.032 HD
ATOM     90  H   UNL     1     147.532 170.782 191.996  0.00  0.00    +0.032 HD
ATOM     91  H   UNL     1     148.308 169.279 190.313  0.00  0.00    +0.060 HD
BRANCH  79  92
ATOM     92  C   UNL     1     151.975 167.974 192.233  0.00  0.00    -0.039 C 
ATOM     93  H   UNL     1     151.839 166.953 192.598  0.00  0.00    +0.025 HD
ATOM     94  H   UNL     1     152.301 167.934 191.192  0.00  0.00    +0.025 HD
ATOM     95  H   UNL     1     152.788 168.445 192.800  0.00  0.00    +0.025 HD
ENDBRANCH  79  92
BRANCH  81  96
ATOM     96  O   UNL     1     149.556 171.882 190.984  0.00  0.00    -0.380 OA
BRANCH  96  97
ATOM     97  C   UNL     1     148.650 172.971 191.120  0.00  0.00    +0.037 C 
ATOM     98  H   UNL     1     147.773 172.658 191.697  0.00  0.00    +0.052 HD
ATOM     99  H   UNL     1     148.322 173.273 190.122  0.00  0.00    +0.052 HD
ATOM    100  H   UNL     1     149.128 173.831 191.603  0.00  0.00    +0.052 HD
ENDBRANCH  96  97
ENDBRANCH  81  96
ENDBRANCH  76  83
ENDBRANCH  73  76
ENDBRANCH  67  73
ENDBRANCH  65  67
BRANCH  65 101
ATOM    101  O   UNL     1     143.777 167.833 190.711  0.00  0.00    -0.391 OA
ATOM    102  H   UNL     1     143.193 167.941 189.931  0.00  0.00    +0.210 HD
ENDBRANCH  65 101
ENDBRANCH  59  65
ENDBRANCH   1  59
BRANCH  19 103
ATOM    103  O   UNL     1     143.303 178.200 191.134  0.00  0.00    -0.385 OA
ATOM    104  H   UNL     1     143.702 178.067 192.013  0.00  0.00    +0.210 HD
ENDBRANCH  19 103
BRANCH  18 105
ATOM    105  O   UNL     1     139.856 177.478 190.054  0.00  0.00    -0.377 OA
BRANCH 105 106
ATOM    106  C   UNL     1     138.716 178.194 189.601  0.00  0.00    +0.037 C 
ATOM    107  H   UNL     1     137.835 178.002 190.223  0.00  0.00    +0.052 HD
ATOM    108  H   UNL     1     138.944 179.263 189.645  0.00  0.00    +0.052 HD
ATOM    109  H   UNL     1     138.501 177.930 188.560  0.00  0.00    +0.052 HD
ENDBRANCH 105 106
ENDBRANCH  18 105
BRANCH   9 110
ATOM    110  O   UNL     1     142.645 173.997 184.885  0.00  0.00    -0.377 OA
BRANCH 110 111
ATOM    111  C   UNL     1     142.407 174.115 183.487  0.00  0.00    +0.037 C 
ATOM    112  H   UNL     1     141.410 173.742 183.241  0.00  0.00    +0.052 HD
ATOM    113  H   UNL     1     143.144 173.503 182.962  0.00  0.00    +0.052 HD
ATOM    114  H   UNL     1     142.514 175.152 183.153  0.00  0.00    +0.052 HD
ENDBRANCH 110 111
ENDBRANCH   9 110
BRANCH   5 115
ATOM    115  O   UNL     1     146.233 171.980 185.642  0.00  0.00    -0.377 OA
BRANCH 115 116
ATOM    116  C   UNL     1     146.657 171.484 184.379  0.00  0.00    +0.037 C 
ATOM    117  H   UNL     1     145.945 171.768 183.598  0.00  0.00    +0.052 HD
ATOM    118  H   UNL     1     147.653 171.852 184.122  0.00  0.00    +0.052 HD
ATOM    119  H   UNL     1     146.691 170.393 184.435  0.00  0.00    +0.052 HD
ENDBRANCH 115 116
ENDBRANCH   5 115
BRANCH   3 120
ATOM    120  O   UNL     1     144.731 169.658 186.301  0.00  0.00    -0.379 OA
BRANCH 120 121
ATOM    121  C   UNL     1     144.405 168.639 185.364  0.00  0.00    +0.037 C 
ATOM    122  H   UNL     1     143.615 169.018 184.711  0.00  0.00    +0.052 HD
ATOM    123  H   UNL     1     144.029 167.752 185.881  0.00  0.00    +0.052 HD
ATOM    124  H   UNL     1     145.269 168.378 184.748  0.00  0.00    +0.052 HD
ENDBRANCH 120 121
ENDBRANCH   3 120
TORSDOF 23
ENDMDL
MODEL 10
REMARK VINA RESULT:      -4.9      7.007     12.041
REMARK  Name = Lobophorolide_conf3
REMARK  23 active torsions:
REMARK  status: ('A' for Active; 'I' for Inactive)
REMARK    1  A    between atoms: C_1  and  C_2
REMARK    2  A    between atoms: C_4  and  O_53
REMARK    3  A    between atoms: C_6  and  C_8
REMARK    4  A    between atoms: C_8  and  C_9
REMARK    5  A    between atoms: C_9  and  C_10
REMARK    6  A    between atoms: C_10  and  C_11
REMARK    7  A    between atoms: C_10  and  C_12
REMARK    8  A    between atoms: C_12  and  C_13
REMARK    9  A    between atoms: C_12  and  O_52
REMARK   10  A    between atoms: C_13  and  C_14
REMARK   11  A    between atoms: C_13  and  C_15
REMARK   12  A    between atoms: C_16  and  C_51
REMARK   13  A    between atoms: C_17  and  O_49
REMARK   14  A    between atoms: C_19  and  O_47
REMARK   15  A    between atoms: C_23  and  O_45
REMARK   16  A    between atoms: C_32  and  O_43
REMARK   17  A    between atoms: C_33  and  O_42
REMARK   18  A    between atoms: C_35  and  C_41
REMARK   19  A    between atoms: O_43  and  C_44
REMARK   20  A    between atoms: O_45  and  C_46
REMARK   21  A    between atoms: O_47  and  C_48
REMARK   22  A    between atoms: O_49  and  C_50
REMARK   23  A    between atoms: O_53  and  C_54
REMARK                            x       y       z     vdW  Elec       q    Type
REMARK                         _______ _______ _______ _____ _____    ______ ____
ROOT
ATOM      1  C   UNL     1     143.194 167.807 190.107  0.00  0.00    +0.113 C 
ATOM      2  C   UNL     1     142.384 166.801 189.225  0.00  0.00    +0.020 C 
ATOM      3  C   UNL     1     143.169 165.699 188.459  0.00  0.00    +0.067 C 
ATOM      4  C   UNL     1     144.308 166.212 187.546  0.00  0.00    +0.003 C 
ATOM      5  C   UNL     1     144.968 165.062 186.749  0.00  0.00    +0.094 C 
ATOM      6  C   UNL     1     145.704 165.575 185.506  0.00  0.00    +0.145 C 
ATOM      7  C   UNL     1     147.176 165.955 185.630  0.00  0.00    +0.083 C 
ATOM      8  O   UNL     1     146.778 164.703 185.068  0.00  0.00    -0.363 OA
ATOM      9  C   UNL     1     144.882 166.058 184.307  0.00  0.00    +0.094 C 
ATOM     10  C   UNL     1     145.019 167.573 184.083  0.00  0.00    +0.003 C 
ATOM     11  C   UNL     1     144.156 168.136 182.933  0.00  0.00    +0.065 C 
ATOM     12  C   UNL     1     144.365 167.503 181.547  0.00  0.00    -0.008 C 
ATOM     13  C   UNL     1     145.643 167.964 180.918  0.00  0.00    -0.083 C 
ATOM     14  C   UNL     1     146.216 169.108 181.319  0.00  0.00    -0.059 C 
ATOM     15  C   UNL     1     145.629 169.998 182.398  0.00  0.00    +0.080 C 
ATOM     16  O   UNL     1     144.326 169.562 182.811  0.00  0.00    -0.369 OA
ATOM     17  C   UNL     1     145.539 171.441 181.882  0.00  0.00    +0.006 C 
ATOM     18  C   UNL     1     145.029 172.514 182.873  0.00  0.00    +0.090 C 
ATOM     19  C   UNL     1     145.765 172.565 184.245  0.00  0.00    +0.100 C 
ATOM     20  C   UNL     1     145.250 171.629 185.312  0.00  0.00    -0.051 C 
ATOM     21  C   UNL     1     145.249 171.841 186.645  0.00  0.00    -0.052 C 
ATOM     22  C   UNL     1     144.591 170.867 187.511  0.00  0.00    -0.052 C 
ATOM     23  C   UNL     1     144.275 171.077 188.797  0.00  0.00    +0.023 C 
ATOM     24  C   UNL     1     143.565 170.112 189.651  0.00  0.00    +0.332 C 
ATOM     25  O   UNL     1     142.945 170.478 190.637  0.00  0.00    -0.246 OA
ATOM     26  O   UNL     1     143.763 168.828 189.248  0.00  0.00    -0.458 OA
ATOM     27  H   UNL     1     142.442 168.267 190.756  0.00  0.00    +0.074 HD
ATOM     28  H   UNL     1     141.719 166.276 189.925  0.00  0.00    +0.036 HD
ATOM     29  H   UNL     1     142.460 165.177 187.802  0.00  0.00    +0.060 HD
ATOM     30  H   UNL     1     145.085 166.703 188.143  0.00  0.00    +0.032 HD
ATOM     31  H   UNL     1     143.898 166.959 186.860  0.00  0.00    +0.032 HD
ATOM     32  H   UNL     1     144.198 164.346 186.442  0.00  0.00    +0.063 HD
ATOM     33  H   UNL     1     147.621 166.675 184.957  0.00  0.00    +0.059 HD
ATOM     34  H   UNL     1     147.636 165.945 186.612  0.00  0.00    +0.059 HD
ATOM     35  H   UNL     1     145.250 165.545 183.406  0.00  0.00    +0.063 HD
ATOM     36  H   UNL     1     146.072 167.818 183.916  0.00  0.00    +0.032 HD
ATOM     37  H   UNL     1     144.742 168.108 185.000  0.00  0.00    +0.032 HD
ATOM     38  H   UNL     1     143.103 167.989 183.206  0.00  0.00    +0.060 HD
ATOM     39  H   UNL     1     143.550 167.821 180.885  0.00  0.00    +0.033 HD
ATOM     40  H   UNL     1     144.329 166.413 181.591  0.00  0.00    +0.033 HD
ATOM     41  H   UNL     1     146.084 167.370 180.124  0.00  0.00    +0.057 HD
ATOM     42  H   UNL     1     147.157 169.421 180.873  0.00  0.00    +0.059 HD
ATOM     43  H   UNL     1     146.304 169.958 183.258  0.00  0.00    +0.064 HD
ATOM     44  H   UNL     1     146.533 171.755 181.534  0.00  0.00    +0.032 HD
ATOM     45  H   UNL     1     144.884 171.447 181.003  0.00  0.00    +0.032 HD
ATOM     46  H   UNL     1     145.247 173.479 182.392  0.00  0.00    +0.063 HD
ATOM     47  H   UNL     1     145.640 173.591 184.609  0.00  0.00    +0.066 HD
ATOM     48  H   UNL     1     144.733 170.754 184.931  0.00  0.00    +0.060 HD
ATOM     49  H   UNL     1     144.299 169.927 187.045  0.00  0.00    +0.062 HD
ATOM     50  H   UNL     1     144.470 172.018 189.294  0.00  0.00    +0.069 HD
ENDROOT
BRANCH  21  51
ATOM     51  C   UNL     1     145.899 173.039 187.291  0.00  0.00    -0.040 C 
ATOM     52  H   UNL     1     146.907 173.236 186.911  0.00  0.00    +0.028 HD
ATOM     53  H   UNL     1     145.298 173.940 187.115  0.00  0.00    +0.028 HD
ATOM     54  H   UNL     1     146.009 172.896 188.372  0.00  0.00    +0.028 HD
ENDBRANCH  21  51
BRANCH   2  55
ATOM     55  C   UNL     1     141.458 167.558 188.258  0.00  0.00    -0.057 C 
ATOM     56  H   UNL     1     140.878 168.318 188.796  0.00  0.00    +0.023 HD
ATOM     57  H   UNL     1     142.011 168.061 187.461  0.00  0.00    +0.023 HD
ATOM     58  H   UNL     1     140.744 166.870 187.790  0.00  0.00    +0.023 HD
ENDBRANCH   2  55
BRANCH   1  59
ATOM     59  C   UNL     1     144.309 167.203 191.011  0.00  0.00    +0.020 C 
ATOM     60  H   UNL     1     144.292 166.121 190.843  0.00  0.00    +0.036 HD
BRANCH  59  61
ATOM     61  C   UNL     1     145.735 167.577 190.575  0.00  0.00    -0.057 C 
ATOM     62  H   UNL     1     145.765 168.598 190.179  0.00  0.00    +0.023 HD
ATOM     63  H   UNL     1     146.422 167.553 191.428  0.00  0.00    +0.023 HD
ATOM     64  H   UNL     1     146.126 166.901 189.811  0.00  0.00    +0.023 HD
ENDBRANCH  59  61
BRANCH  59  65
ATOM     65  C   UNL     1     144.080 167.448 192.531  0.00  0.00    +0.064 C 
ATOM     66  H   UNL     1     144.953 167.936 192.975  0.00  0.00    +0.060 HD
BRANCH  65  67
ATOM     67  C   UNL     1     143.713 166.223 193.431  0.00  0.00    -0.017 C 
ATOM     68  H   UNL     1     143.338 166.609 194.381  0.00  0.00    +0.032 HD
BRANCH  67  69
ATOM     69  C   UNL     1     142.625 165.359 192.791  0.00  0.00    -0.060 C 
ATOM     70  H   UNL     1     142.579 165.495 191.707  0.00  0.00    +0.023 HD
ATOM     71  H   UNL     1     141.638 165.595 193.203  0.00  0.00    +0.023 HD
ATOM     72  H   UNL     1     142.816 164.295 192.937  0.00  0.00    +0.023 HD
ENDBRANCH  67  69
BRANCH  67  73
ATOM     73  C   UNL     1     144.989 165.396 193.750  0.00  0.00    -0.046 C 
ATOM     74  H   UNL     1     144.695 164.595 194.442  0.00  0.00    +0.027 HD
ATOM     75  H   UNL     1     145.337 164.892 192.839  0.00  0.00    +0.027 HD
BRANCH  73  76
ATOM     76  C   UNL     1     146.191 166.109 194.382  0.00  0.00    -0.026 C 
ATOM     77  H   UNL     1     146.011 167.185 194.487  0.00  0.00    +0.029 HD
ATOM     78  H   UNL     1     146.252 165.757 195.423  0.00  0.00    +0.029 HD
BRANCH  76  83
ATOM     79  C   UNL     1     149.447 165.956 195.292  0.00  0.00    +0.059 C 
ATOM     80  C   UNL     1     150.433 166.221 194.159  0.00  0.00    -0.000 C 
ATOM     81  C   UNL     1     149.759 166.944 192.987  0.00  0.00    +0.063 C 
ATOM     82  C   UNL     1     148.254 167.119 193.196  0.00  0.00    -0.000 C 
ATOM     83  C   UNL     1     147.579 165.864 193.758  0.00  0.00    +0.061 C 
ATOM     84  O   UNL     1     148.352 165.203 194.777  0.00  0.00    -0.373 OA
ATOM     85  H   UNL     1     149.077 166.893 195.725  0.00  0.00    +0.059 HD
ATOM     86  H   UNL     1     151.273 166.821 194.526  0.00  0.00    +0.032 HD
ATOM     87  H   UNL     1     150.852 165.267 193.813  0.00  0.00    +0.032 HD
ATOM     88  H   UNL     1     150.195 167.943 192.866  0.00  0.00    +0.060 HD
ATOM     89  H   UNL     1     148.103 167.955 193.888  0.00  0.00    +0.032 HD
ATOM     90  H   UNL     1     147.787 167.391 192.245  0.00  0.00    +0.032 HD
ATOM     91  H   UNL     1     147.469 165.133 192.948  0.00  0.00    +0.060 HD
BRANCH  79  92
ATOM     92  C   UNL     1     150.095 165.140 196.404  0.00  0.00    -0.039 C 
ATOM     93  H   UNL     1     150.035 165.658 197.364  0.00  0.00    +0.025 HD
ATOM     94  H   UNL     1     149.603 164.169 196.497  0.00  0.00    +0.025 HD
ATOM     95  H   UNL     1     151.150 164.938 196.177  0.00  0.00    +0.025 HD
ENDBRANCH  79  92
BRANCH  81  96
ATOM     96  O   UNL     1     149.961 166.217 191.767  0.00  0.00    -0.380 OA
BRANCH  96  97
ATOM     97  C   UNL     1     151.304 165.776 191.596  0.00  0.00    +0.037 C 
ATOM     98  H   UNL     1     151.802 165.710 192.570  0.00  0.00    +0.052 HD
ATOM     99  H   UNL     1     151.832 166.512 190.983  0.00  0.00    +0.052 HD
ATOM    100  H   UNL     1     151.346 164.806 191.088  0.00  0.00    +0.052 HD
ENDBRANCH  96  97
ENDBRANCH  81  96
ENDBRANCH  76  83
ENDBRANCH  73  76
ENDBRANCH  67  73
ENDBRANCH  65  67
BRANCH  65 101
ATOM    101  O   UNL     1     143.007 168.400 192.634  0.00  0.00    -0.391 OA
ATOM    102  H   UNL     1     142.185 167.913 192.414  0.00  0.00    +0.210 HD
ENDBRANCH  65 101
ENDBRANCH  59  65
ENDBRANCH   1  59
BRANCH  19 103
ATOM    103  O   UNL     1     147.164 172.348 184.067  0.00  0.00    -0.385 OA
ATOM    104  H   UNL     1     147.319 171.387 184.120  0.00  0.00    +0.210 HD
ENDBRANCH  19 103
BRANCH  18 105
ATOM    105  O   UNL     1     143.613 172.436 183.090  0.00  0.00    -0.377 OA
BRANCH 105 106
ATOM    106  C   UNL     1     142.972 173.703 183.148  0.00  0.00    +0.037 C 
ATOM    107  H   UNL     1     142.213 173.744 183.937  0.00  0.00    +0.052 HD
ATOM    108  H   UNL     1     143.732 174.460 183.360  0.00  0.00    +0.052 HD
ATOM    109  H   UNL     1     142.517 173.933 182.179  0.00  0.00    +0.052 HD
ENDBRANCH 105 106
ENDBRANCH  18 105
BRANCH   9 110
ATOM    110  O   UNL     1     143.490 165.756 184.490  0.00  0.00    -0.377 OA
BRANCH 110 111
ATOM    111  C   UNL     1     143.055 164.672 183.677  0.00  0.00    +0.037 C 
ATOM    112  H   UNL     1     143.893 164.270 183.102  0.00  0.00    +0.052 HD
ATOM    113  H   UNL     1     142.305 165.049 182.978  0.00  0.00    +0.052 HD
ATOM    114  H   UNL     1     142.601 163.880 184.282  0.00  0.00    +0.052 HD
ENDBRANCH 110 111
ENDBRANCH   9 110
BRANCH   5 115
ATOM    115  O   UNL     1     145.894 164.408 187.641  0.00  0.00    -0.377 OA
BRANCH 115 116
ATOM    116  C   UNL     1     145.853 162.990 187.546  0.00  0.00    +0.037 C 
ATOM    117  H   UNL     1     144.850 162.654 187.267  0.00  0.00    +0.052 HD
ATOM    118  H   UNL     1     146.581 162.621 186.820  0.00  0.00    +0.052 HD
ATOM    119  H   UNL     1     146.095 162.575 188.527  0.00  0.00    +0.052 HD
ENDBRANCH 115 116
ENDBRANCH   5 115
BRANCH   3 120
ATOM    120  O   UNL     1     143.688 164.745 189.402  0.00  0.00    -0.379 OA
BRANCH 120 121
ATOM    121  C   UNL     1     142.866 163.593 189.546  0.00  0.00    +0.037 C 
ATOM    122  H   UNL     1     142.391 163.634 190.529  0.00  0.00    +0.052 HD
ATOM    123  H   UNL     1     143.471 162.684 189.492  0.00  0.00    +0.052 HD
ATOM    124  H   UNL     1     142.083 163.570 188.783  0.00  0.00    +0.052 HD
ENDBRANCH 120 121
ENDBRANCH   3 120
TORSDOF 23
ENDMDL
