MODEL 1
REMARK VINA RESULT:      -5.6      0.000      0.000
REMARK  Name = Lobophorolide_conf2
REMARK  23 active torsions:
REMARK  status: ('A' for Active; 'I' for Inactive)
REMARK    1  A    between atoms: C_1  and  C_2
REMARK    2  A    between atoms: C_4  and  O_53
REMARK    3  A    between atoms: C_6  and  C_8
REMARK    4  A    between atoms: C_8  and  C_9
REMARK    5  A    between atoms: C_9  and  C_10
REMARK    6  A    between atoms: C_10  and  C_11
REMARK    7  A    between atoms: C_10  and  C_12
REMARK    8  A    between atoms: C_12  and  C_13
REMARK    9  A    between atoms: C_12  and  O_52
REMARK   10  A    between atoms: C_13  and  C_14
REMARK   11  A    between atoms: C_13  and  C_15
REMARK   12  A    between atoms: C_16  and  C_51
REMARK   13  A    between atoms: C_17  and  O_49
REMARK   14  A    between atoms: C_19  and  O_47
REMARK   15  A    between atoms: C_23  and  O_45
REMARK   16  A    between atoms: C_32  and  O_43
REMARK   17  A    between atoms: C_33  and  O_42
REMARK   18  A    between atoms: C_35  and  C_41
REMARK   19  A    between atoms: O_43  and  C_44
REMARK   20  A    between atoms: O_45  and  C_46
REMARK   21  A    between atoms: O_47  and  C_48
REMARK   22  A    between atoms: O_49  and  C_50
REMARK   23  A    between atoms: O_53  and  C_54
REMARK                            x       y       z     vdW  Elec       q    Type
REMARK                         _______ _______ _______ _____ _____    ______ ____
ROOT
ATOM      1  C   UNL     1     148.317 167.348 191.554  0.00  0.00    +0.113 C 
ATOM      2  C   UNL     1     147.284 166.213 191.828  0.00  0.00    +0.020 C 
ATOM      3  C   UNL     1     145.880 166.793 192.210  0.00  0.00    +0.067 C 
ATOM      4  C   UNL     1     144.731 165.914 191.656  0.00  0.00    +0.003 C 
ATOM      5  C   UNL     1     143.961 166.556 190.474  0.00  0.00    +0.094 C 
ATOM      6  C   UNL     1     142.996 167.680 190.846  0.00  0.00    +0.145 C 
ATOM      7  C   UNL     1     142.111 167.513 192.081  0.00  0.00    +0.083 C 
ATOM      8  O   UNL     1     143.265 168.360 192.084  0.00  0.00    -0.363 OA
ATOM      9  C   UNL     1     142.429 168.540 189.710  0.00  0.00    +0.094 C 
ATOM     10  C   UNL     1     142.221 170.009 190.131  0.00  0.00    +0.003 C 
ATOM     11  C   UNL     1     141.436 170.929 189.182  0.00  0.00    +0.065 C 
ATOM     12  C   UNL     1     139.913 170.759 189.311  0.00  0.00    -0.008 C 
ATOM     13  C   UNL     1     139.211 171.642 188.327  0.00  0.00    -0.083 C 
ATOM     14  C   UNL     1     139.863 172.111 187.257  0.00  0.00    -0.059 C 
ATOM     15  C   UNL     1     141.297 171.765 186.931  0.00  0.00    +0.080 C 
ATOM     16  O   UNL     1     141.851 170.768 187.817  0.00  0.00    -0.369 OA
ATOM     17  C   UNL     1     142.203 173.007 186.912  0.00  0.00    +0.006 C 
ATOM     18  C   UNL     1     143.420 172.780 185.997  0.00  0.00    +0.090 C 
ATOM     19  C   UNL     1     144.702 173.446 186.556  0.00  0.00    +0.100 C 
ATOM     20  C   UNL     1     145.320 172.722 187.722  0.00  0.00    -0.051 C 
ATOM     21  C   UNL     1     145.875 171.491 187.746  0.00  0.00    -0.052 C 
ATOM     22  C   UNL     1     146.403 170.976 189.011  0.00  0.00    -0.052 C 
ATOM     23  C   UNL     1     146.946 169.763 189.187  0.00  0.00    +0.023 C 
ATOM     24  C   UNL     1     147.448 169.330 190.505  0.00  0.00    +0.332 C 
ATOM     25  O   UNL     1     147.476 170.006 191.519  0.00  0.00    -0.246 OA
ATOM     26  O   UNL     1     147.855 168.041 190.373  0.00  0.00    -0.458 OA
ATOM     27  H   UNL     1     148.339 168.017 192.423  0.00  0.00    +0.074 HD
ATOM     28  H   UNL     1     147.164 165.678 190.877  0.00  0.00    +0.036 HD
ATOM     29  H   UNL     1     145.758 167.815 191.837  0.00  0.00    +0.060 HD
ATOM     30  H   UNL     1     144.041 165.637 192.456  0.00  0.00    +0.032 HD
ATOM     31  H   UNL     1     145.147 164.963 191.301  0.00  0.00    +0.032 HD
ATOM     32  H   UNL     1     143.342 165.776 190.014  0.00  0.00    +0.063 HD
ATOM     33  H   UNL     1     142.144 166.599 192.655  0.00  0.00    +0.059 HD
ATOM     34  H   UNL     1     141.135 167.987 192.090  0.00  0.00    +0.059 HD
ATOM     35  H   UNL     1     143.124 168.547 188.860  0.00  0.00    +0.063 HD
ATOM     36  H   UNL     1     143.222 170.440 190.273  0.00  0.00    +0.032 HD
ATOM     37  H   UNL     1     141.728 170.066 191.108  0.00  0.00    +0.032 HD
ATOM     38  H   UNL     1     141.685 171.951 189.498  0.00  0.00    +0.060 HD
ATOM     39  H   UNL     1     139.598 171.019 190.328  0.00  0.00    +0.033 HD
ATOM     40  H   UNL     1     139.591 169.733 189.115  0.00  0.00    +0.033 HD
ATOM     41  H   UNL     1     138.168 171.886 188.499  0.00  0.00    +0.057 HD
ATOM     42  H   UNL     1     139.340 172.754 186.552  0.00  0.00    +0.059 HD
ATOM     43  H   UNL     1     141.287 171.306 185.935  0.00  0.00    +0.064 HD
ATOM     44  H   UNL     1     141.641 173.879 186.557  0.00  0.00    +0.032 HD
ATOM     45  H   UNL     1     142.536 173.227 187.932  0.00  0.00    +0.032 HD
ATOM     46  H   UNL     1     143.593 171.708 185.845  0.00  0.00    +0.063 HD
ATOM     47  H   UNL     1     144.469 174.475 186.863  0.00  0.00    +0.066 HD
ATOM     48  H   UNL     1     145.287 173.295 188.647  0.00  0.00    +0.060 HD
ATOM     49  H   UNL     1     146.341 171.643 189.870  0.00  0.00    +0.062 HD
ATOM     50  H   UNL     1     147.040 169.036 188.391  0.00  0.00    +0.069 HD
ENDROOT
BRANCH  21  51
ATOM     51  C   UNL     1     145.989 170.602 186.532  0.00  0.00    -0.040 C 
ATOM     52  H   UNL     1     145.053 170.058 186.369  0.00  0.00    +0.028 HD
ATOM     53  H   UNL     1     146.798 169.876 186.650  0.00  0.00    +0.028 HD
ATOM     54  H   UNL     1     146.216 171.144 185.612  0.00  0.00    +0.028 HD
ENDBRANCH  21  51
BRANCH   2  55
ATOM     55  C   UNL     1     147.767 165.202 192.879  0.00  0.00    -0.057 C 
ATOM     56  H   UNL     1     148.860 165.185 192.932  0.00  0.00    +0.023 HD
ATOM     57  H   UNL     1     147.411 165.453 193.881  0.00  0.00    +0.023 HD
ATOM     58  H   UNL     1     147.418 164.189 192.645  0.00  0.00    +0.023 HD
ENDBRANCH   2  55
BRANCH   1  59
ATOM     59  C   UNL     1     149.778 166.867 191.301  0.00  0.00    +0.020 C 
ATOM     60  H   UNL     1     149.906 165.926 191.849  0.00  0.00    +0.036 HD
BRANCH  59  61
ATOM     61  C   UNL     1     150.043 166.538 189.830  0.00  0.00    -0.057 C 
ATOM     62  H   UNL     1     149.166 166.748 189.210  0.00  0.00    +0.023 HD
ATOM     63  H   UNL     1     150.857 167.145 189.425  0.00  0.00    +0.023 HD
ATOM     64  H   UNL     1     150.333 165.495 189.696  0.00  0.00    +0.023 HD
ENDBRANCH  59  61
BRANCH  59  65
ATOM     65  C   UNL     1     150.826 167.851 191.906  0.00  0.00    +0.064 C 
ATOM     66  H   UNL     1     151.366 168.296 191.060  0.00  0.00    +0.060 HD
BRANCH  65  67
ATOM     67  C   UNL     1     151.877 167.299 192.919  0.00  0.00    -0.017 C 
ATOM     68  H   UNL     1     152.077 168.061 193.675  0.00  0.00    +0.032 HD
BRANCH  67  69
ATOM     69  C   UNL     1     151.237 166.108 193.656  0.00  0.00    -0.060 C 
ATOM     70  H   UNL     1     150.769 166.421 194.593  0.00  0.00    +0.023 HD
ATOM     71  H   UNL     1     151.979 165.335 193.893  0.00  0.00    +0.023 HD
ATOM     72  H   UNL     1     150.455 165.648 193.041  0.00  0.00    +0.023 HD
ENDBRANCH  67  69
BRANCH  67  73
ATOM     73  C   UNL     1     153.217 166.829 192.293  0.00  0.00    -0.046 C 
ATOM     74  H   UNL     1     153.999 166.789 193.054  0.00  0.00    +0.027 HD
ATOM     75  H   UNL     1     153.576 167.548 191.545  0.00  0.00    +0.027 HD
BRANCH  73  76
ATOM     76  C   UNL     1     153.169 165.434 191.639  0.00  0.00    -0.026 C 
ATOM     77  H   UNL     1     153.381 164.694 192.422  0.00  0.00    +0.029 HD
ATOM     78  H   UNL     1     152.154 165.234 191.282  0.00  0.00    +0.029 HD
BRANCH  76  83
ATOM     79  C   UNL     1     156.399 165.720 189.767  0.00  0.00    +0.059 C 
ATOM     80  C   UNL     1     155.872 166.015 188.362  0.00  0.00    -0.000 C 
ATOM     81  C   UNL     1     154.486 166.641 188.412  0.00  0.00    +0.063 C 
ATOM     82  C   UNL     1     153.548 165.703 189.166  0.00  0.00    -0.000 C 
ATOM     83  C   UNL     1     154.159 165.197 190.484  0.00  0.00    +0.061 C 
ATOM     84  O   UNL     1     155.383 165.873 190.765  0.00  0.00    -0.373 OA
ATOM     85  H   UNL     1     157.160 166.473 190.012  0.00  0.00    +0.059 HD
ATOM     86  H   UNL     1     156.571 166.678 187.832  0.00  0.00    +0.032 HD
ATOM     87  H   UNL     1     155.843 165.102 187.748  0.00  0.00    +0.032 HD
ATOM     88  H   UNL     1     154.546 167.609 188.924  0.00  0.00    +0.060 HD
ATOM     89  H   UNL     1     152.589 166.208 189.340  0.00  0.00    +0.032 HD
ATOM     90  H   UNL     1     153.288 164.841 188.538  0.00  0.00    +0.032 HD
ATOM     91  H   UNL     1     154.348 164.120 190.415  0.00  0.00    +0.060 HD
BRANCH  79  92
ATOM     92  C   UNL     1     157.079 164.356 189.852  0.00  0.00    -0.039 C 
ATOM     93  H   UNL     1     158.053 164.358 189.353  0.00  0.00    +0.025 HD
ATOM     94  H   UNL     1     157.234 164.069 190.895  0.00  0.00    +0.025 HD
ATOM     95  H   UNL     1     156.469 163.591 189.362  0.00  0.00    +0.025 HD
ENDBRANCH  79  92
BRANCH  81  96
ATOM     96  O   UNL     1     154.048 166.848 187.064  0.00  0.00    -0.380 OA
BRANCH  96  97
ATOM     97  C   UNL     1     155.118 167.074 186.152  0.00  0.00    +0.037 C 
ATOM     98  H   UNL     1     156.043 167.306 186.689  0.00  0.00    +0.052 HD
ATOM     99  H   UNL     1     155.273 166.159 185.576  0.00  0.00    +0.052 HD
ATOM    100  H   UNL     1     154.871 167.880 185.455  0.00  0.00    +0.052 HD
ENDBRANCH  96  97
ENDBRANCH  81  96
ENDBRANCH  76  83
ENDBRANCH  73  76
ENDBRANCH  67  73
ENDBRANCH  65  67
BRANCH  65 101
ATOM    101  O   UNL     1     150.126 168.943 192.524  0.00  0.00    -0.391 OA
ATOM    102  H   UNL     1     149.697 168.598 193.325  0.00  0.00    +0.210 HD
ENDBRANCH  65 101
ENDBRANCH  59  65
ENDBRANCH   1  59
BRANCH  19 103
ATOM    103  O   UNL     1     145.687 173.570 185.530  0.00  0.00    -0.385 OA
ATOM    104  H   UNL     1     145.233 174.050 184.812  0.00  0.00    +0.210 HD
ENDBRANCH  19 103
BRANCH  18 105
ATOM    105  O   UNL     1     143.123 173.406 184.722  0.00  0.00    -0.377 OA
BRANCH 105 106
ATOM    106  C   UNL     1     142.416 174.635 184.867  0.00  0.00    +0.037 C 
ATOM    107  H   UNL     1     141.503 174.627 184.263  0.00  0.00    +0.052 HD
ATOM    108  H   UNL     1     143.060 175.444 184.513  0.00  0.00    +0.052 HD
ATOM    109  H   UNL     1     142.174 174.815 185.920  0.00  0.00    +0.052 HD
ENDBRANCH 105 106
ENDBRANCH  18 105
BRANCH   9 110
ATOM    110  O   UNL     1     141.179 167.951 189.325  0.00  0.00    -0.377 OA
BRANCH 110 111
ATOM    111  C   UNL     1     141.248 167.308 188.062  0.00  0.00    +0.037 C 
ATOM    112  H   UNL     1     140.684 167.903 187.340  0.00  0.00    +0.052 HD
ATOM    113  H   UNL     1     140.801 166.311 188.117  0.00  0.00    +0.052 HD
ATOM    114  H   UNL     1     142.283 167.237 187.716  0.00  0.00    +0.052 HD
ENDBRANCH 110 111
ENDBRANCH   9 110
BRANCH   5 115
ATOM    115  O   UNL     1     144.903 167.047 189.507  0.00  0.00    -0.377 OA
BRANCH 115 116
ATOM    116  C   UNL     1     145.252 166.082 188.524  0.00  0.00    +0.037 C 
ATOM    117  H   UNL     1     145.068 166.477 187.520  0.00  0.00    +0.052 HD
ATOM    118  H   UNL     1     144.696 165.151 188.669  0.00  0.00    +0.052 HD
ATOM    119  H   UNL     1     146.320 165.870 188.621  0.00  0.00    +0.052 HD
ENDBRANCH 115 116
ENDBRANCH   5 115
BRANCH   3 120
ATOM    120  O   UNL     1     145.731 166.795 193.646  0.00  0.00    -0.379 OA
BRANCH 120 121
ATOM    121  C   UNL     1     144.736 165.892 194.113  0.00  0.00    +0.037 C 
ATOM    122  H   UNL     1     143.947 165.764 193.369  0.00  0.00    +0.052 HD
ATOM    123  H   UNL     1     145.177 164.925 194.372  0.00  0.00    +0.052 HD
ATOM    124  H   UNL     1     144.289 166.315 195.016  0.00  0.00    +0.052 HD
ENDBRANCH 120 121
ENDBRANCH   3 120
TORSDOF 23
ENDMDL
MODEL 2
REMARK VINA RESULT:      -5.6      2.555      4.682
REMARK  Name = Lobophorolide_conf2
REMARK  23 active torsions:
REMARK  status: ('A' for Active; 'I' for Inactive)
REMARK    1  A    between atoms: C_1  and  C_2
REMARK    2  A    between atoms: C_4  and  O_53
REMARK    3  A    between atoms: C_6  and  C_8
REMARK    4  A    between atoms: C_8  and  C_9
REMARK    5  A    between atoms: C_9  and  C_10
REMARK    6  A    between atoms: C_10  and  C_11
REMARK    7  A    between atoms: C_10  and  C_12
REMARK    8  A    between atoms: C_12  and  C_13
REMARK    9  A    between atoms: C_12  and  O_52
REMARK   10  A    between atoms: C_13  and  C_14
REMARK   11  A    between atoms: C_13  and  C_15
REMARK   12  A    between atoms: C_16  and  C_51
REMARK   13  A    between atoms: C_17  and  O_49
REMARK   14  A    between atoms: C_19  and  O_47
REMARK   15  A    between atoms: C_23  and  O_45
REMARK   16  A    between atoms: C_32  and  O_43
REMARK   17  A    between atoms: C_33  and  O_42
REMARK   18  A    between atoms: C_35  and  C_41
REMARK   19  A    between atoms: O_43  and  C_44
REMARK   20  A    between atoms: O_45  and  C_46
REMARK   21  A    between atoms: O_47  and  C_48
REMARK   22  A    between atoms: O_49  and  C_50
REMARK   23  A    between atoms: O_53  and  C_54
REMARK                            x       y       z     vdW  Elec       q    Type
REMARK                         _______ _______ _______ _____ _____    ______ ____
ROOT
ATOM      1  C   UNL     1     147.007 167.046 189.713  0.00  0.00    +0.113 C 
ATOM      2  C   UNL     1     145.641 166.459 190.179  0.00  0.00    +0.020 C 
ATOM      3  C   UNL     1     144.760 167.545 190.886  0.00  0.00    +0.067 C 
ATOM      4  C   UNL     1     143.254 167.344 190.579  0.00  0.00    +0.003 C 
ATOM      5  C   UNL     1     142.660 168.409 189.623  0.00  0.00    +0.094 C 
ATOM      6  C   UNL     1     142.408 169.784 190.237  0.00  0.00    +0.145 C 
ATOM      7  C   UNL     1     141.795 169.866 191.634  0.00  0.00    +0.083 C 
ATOM      8  O   UNL     1     143.186 170.108 191.402  0.00  0.00    -0.363 OA
ATOM      9  C   UNL     1     142.099 170.945 189.284  0.00  0.00    +0.094 C 
ATOM     10  C   UNL     1     142.672 172.287 189.786  0.00  0.00    +0.003 C 
ATOM     11  C   UNL     1     142.236 173.574 189.067  0.00  0.00    +0.065 C 
ATOM     12  C   UNL     1     140.860 174.079 189.532  0.00  0.00    -0.008 C 
ATOM     13  C   UNL     1     140.471 175.301 188.759  0.00  0.00    -0.083 C 
ATOM     14  C   UNL     1     141.053 175.569 187.584  0.00  0.00    -0.059 C 
ATOM     15  C   UNL     1     142.078 174.670 186.932  0.00  0.00    +0.080 C 
ATOM     16  O   UNL     1     142.266 173.425 187.639  0.00  0.00    -0.369 OA
ATOM     17  C   UNL     1     143.432 175.374 186.747  0.00  0.00    +0.006 C 
ATOM     18  C   UNL     1     144.212 174.755 185.573  0.00  0.00    +0.090 C 
ATOM     19  C   UNL     1     145.736 174.707 185.849  0.00  0.00    +0.100 C 
ATOM     20  C   UNL     1     146.158 173.639 186.822  0.00  0.00    -0.051 C 
ATOM     21  C   UNL     1     146.079 172.298 186.683  0.00  0.00    -0.052 C 
ATOM     22  C   UNL     1     146.538 171.443 187.780  0.00  0.00    -0.052 C 
ATOM     23  C   UNL     1     146.484 170.104 187.791  0.00  0.00    +0.023 C 
ATOM     24  C   UNL     1     146.968 169.325 188.948  0.00  0.00    +0.332 C 
ATOM     25  O   UNL     1     147.493 169.781 189.949  0.00  0.00    -0.246 OA
ATOM     26  O   UNL     1     146.704 168.019 188.689  0.00  0.00    -0.458 OA
ATOM     27  H   UNL     1     147.497 167.517 190.574  0.00  0.00    +0.074 HD
ATOM     28  H   UNL     1     145.113 166.161 189.264  0.00  0.00    +0.036 HD
ATOM     29  H   UNL     1     145.054 168.554 190.581  0.00  0.00    +0.060 HD
ATOM     30  H   UNL     1     142.678 167.299 191.507  0.00  0.00    +0.032 HD
ATOM     31  H   UNL     1     143.112 166.363 190.111  0.00  0.00    +0.032 HD
ATOM     32  H   UNL     1     141.678 168.049 189.291  0.00  0.00    +0.063 HD
ATOM     33  H   UNL     1     141.510 168.966 192.158  0.00  0.00    +0.059 HD
ATOM     34  H   UNL     1     141.167 170.717 191.878  0.00  0.00    +0.059 HD
ATOM     35  H   UNL     1     142.546 170.755 188.300  0.00  0.00    +0.063 HD
ATOM     36  H   UNL     1     143.766 172.209 189.711  0.00  0.00    +0.032 HD
ATOM     37  H   UNL     1     142.453 172.429 190.851  0.00  0.00    +0.032 HD
ATOM     38  H   UNL     1     142.981 174.330 189.349  0.00  0.00    +0.060 HD
ATOM     39  H   UNL     1     140.896 174.316 190.601  0.00  0.00    +0.033 HD
ATOM     40  H   UNL     1     140.072 173.336 189.382  0.00  0.00    +0.033 HD
ATOM     41  H   UNL     1     139.710 175.956 189.170  0.00  0.00    +0.057 HD
ATOM     42  H   UNL     1     140.762 176.461 187.035  0.00  0.00    +0.059 HD
ATOM     43  H   UNL     1     141.671 174.397 185.951  0.00  0.00    +0.064 HD
ATOM     44  H   UNL     1     143.278 176.444 186.554  0.00  0.00    +0.032 HD
ATOM     45  H   UNL     1     144.013 175.290 187.671  0.00  0.00    +0.032 HD
ATOM     46  H   UNL     1     143.841 173.746 185.354  0.00  0.00    +0.063 HD
ATOM     47  H   UNL     1     146.064 175.683 186.231  0.00  0.00    +0.066 HD
ATOM     48  H   UNL     1     146.566 174.042 187.748  0.00  0.00    +0.060 HD
ATOM     49  H   UNL     1     146.951 171.951 188.650  0.00  0.00    +0.062 HD
ATOM     50  H   UNL     1     146.083 169.520 186.973  0.00  0.00    +0.069 HD
ENDROOT
BRANCH  21  51
ATOM     51  C   UNL     1     145.542 171.617 185.448  0.00  0.00    -0.040 C 
ATOM     52  H   UNL     1     146.258 171.705 184.624  0.00  0.00    +0.028 HD
ATOM     53  H   UNL     1     144.593 172.060 185.135  0.00  0.00    +0.028 HD
ATOM     54  H   UNL     1     145.334 170.555 185.589  0.00  0.00    +0.028 HD
ENDBRANCH  21  51
BRANCH   2  55
ATOM     55  C   UNL     1     145.792 165.212 191.063  0.00  0.00    -0.057 C 
ATOM     56  H   UNL     1     145.225 164.370 190.652  0.00  0.00    +0.023 HD
ATOM     57  H   UNL     1     146.831 164.883 191.130  0.00  0.00    +0.023 HD
ATOM     58  H   UNL     1     145.436 165.403 192.082  0.00  0.00    +0.023 HD
ENDBRANCH   2  55
BRANCH   1  59
ATOM     59  C   UNL     1     148.008 166.006 189.122  0.00  0.00    +0.020 C 
ATOM     60  H   UNL     1     147.811 165.051 189.623  0.00  0.00    +0.036 HD
BRANCH  59  61
ATOM     61  C   UNL     1     147.781 165.755 187.629  0.00  0.00    -0.057 C 
ATOM     62  H   UNL     1     148.679 165.350 187.152  0.00  0.00    +0.023 HD
ATOM     63  H   UNL     1     146.988 165.022 187.463  0.00  0.00    +0.023 HD
ATOM     64  H   UNL     1     147.480 166.666 187.109  0.00  0.00    +0.023 HD
ENDBRANCH  59  61
BRANCH  59  65
ATOM     65  C   UNL     1     149.487 166.365 189.464  0.00  0.00    +0.064 C 
ATOM     66  H   UNL     1     150.119 165.759 188.802  0.00  0.00    +0.060 HD
BRANCH  65  67
ATOM     67  C   UNL     1     149.987 166.169 190.929  0.00  0.00    -0.017 C 
ATOM     68  H   UNL     1     149.344 165.443 191.431  0.00  0.00    +0.032 HD
BRANCH  67  69
ATOM     69  C   UNL     1     151.391 165.540 190.865  0.00  0.00    -0.060 C 
ATOM     70  H   UNL     1     151.343 164.476 190.622  0.00  0.00    +0.023 HD
ATOM     71  H   UNL     1     151.923 165.643 191.821  0.00  0.00    +0.023 HD
ATOM     72  H   UNL     1     151.997 166.023 190.089  0.00  0.00    +0.023 HD
ENDBRANCH  67  69
BRANCH  67  73
ATOM     73  C   UNL     1     150.066 167.465 191.780  0.00  0.00    -0.046 C 
ATOM     74  H   UNL     1     150.174 168.338 191.133  0.00  0.00    +0.027 HD
ATOM     75  H   UNL     1     150.959 167.463 192.418  0.00  0.00    +0.027 HD
BRANCH  73  76
ATOM     76  C   UNL     1     148.836 167.728 192.670  0.00  0.00    -0.026 C 
ATOM     77  H   UNL     1     149.030 168.644 193.243  0.00  0.00    +0.029 HD
ATOM     78  H   UNL     1     147.965 167.928 192.037  0.00  0.00    +0.029 HD
BRANCH  76  83
ATOM     79  C   UNL     1     146.992 166.109 195.499  0.00  0.00    +0.059 C 
ATOM     80  C   UNL     1     148.163 165.499 196.271  0.00  0.00    -0.000 C 
ATOM     81  C   UNL     1     149.458 166.246 195.990  0.00  0.00    +0.063 C 
ATOM     82  C   UNL     1     149.722 166.230 194.488  0.00  0.00    -0.000 C 
ATOM     83  C   UNL     1     148.477 166.612 193.670  0.00  0.00    +0.061 C 
ATOM     84  O   UNL     1     147.429 167.064 194.526  0.00  0.00    -0.373 OA
ATOM     85  H   UNL     1     146.375 166.679 196.206  0.00  0.00    +0.059 HD
ATOM     86  H   UNL     1     147.944 165.506 197.348  0.00  0.00    +0.032 HD
ATOM     87  H   UNL     1     148.290 164.434 196.025  0.00  0.00    +0.032 HD
ATOM     88  H   UNL     1     149.363 167.279 196.347  0.00  0.00    +0.060 HD
ATOM     89  H   UNL     1     150.567 166.890 194.258  0.00  0.00    +0.032 HD
ATOM     90  H   UNL     1     150.065 165.235 194.173  0.00  0.00    +0.032 HD
ATOM     91  H   UNL     1     148.128 165.745 193.099  0.00  0.00    +0.060 HD
BRANCH  79  92
ATOM     92  C   UNL     1     146.091 165.042 194.883  0.00  0.00    -0.039 C 
ATOM     93  H   UNL     1     145.686 165.363 193.919  0.00  0.00    +0.025 HD
ATOM     94  H   UNL     1     146.647 164.114 194.725  0.00  0.00    +0.025 HD
ATOM     95  H   UNL     1     145.237 164.835 195.537  0.00  0.00    +0.025 HD
ENDBRANCH  79  92
BRANCH  81  96
ATOM     96  O   UNL     1     150.508 165.593 196.714  0.00  0.00    -0.380 OA
BRANCH  96  97
ATOM     97  C   UNL     1     150.855 164.320 196.178  0.00  0.00    +0.037 C 
ATOM     98  H   UNL     1     150.741 163.536 196.934  0.00  0.00    +0.052 HD
ATOM     99  H   UNL     1     150.175 164.104 195.350  0.00  0.00    +0.052 HD
ATOM    100  H   UNL     1     151.876 164.327 195.788  0.00  0.00    +0.052 HD
ENDBRANCH  96  97
ENDBRANCH  81  96
ENDBRANCH  76  83
ENDBRANCH  73  76
ENDBRANCH  67  73
ENDBRANCH  65  67
BRANCH  65 101
ATOM    101  O   UNL     1     149.730 167.726 189.076  0.00  0.00    -0.391 OA
ATOM    102  H   UNL     1     148.905 168.073 188.696  0.00  0.00    +0.210 HD
ENDBRANCH  65 101
ENDBRANCH  59  65
ENDBRANCH   1  59
BRANCH  19 103
ATOM    103  O   UNL     1     146.456 174.515 184.630  0.00  0.00    -0.385 OA
ATOM    104  H   UNL     1     146.493 173.547 184.518  0.00  0.00    +0.210 HD
ENDBRANCH  19 103
BRANCH  18 105
ATOM    105  O   UNL     1     144.004 175.607 184.418  0.00  0.00    -0.377 OA
BRANCH 105 106
ATOM    106  C   UNL     1     143.956 176.990 184.760  0.00  0.00    +0.037 C 
ATOM    107  H   UNL     1     143.214 177.512 184.147  0.00  0.00    +0.052 HD
ATOM    108  H   UNL     1     144.939 177.425 184.562  0.00  0.00    +0.052 HD
ATOM    109  H   UNL     1     143.726 177.113 185.823  0.00  0.00    +0.052 HD
ENDBRANCH 105 106
ENDBRANCH  18 105
BRANCH   9 110
ATOM    110  O   UNL     1     140.671 171.025 189.175  0.00  0.00    -0.377 OA
BRANCH 110 111
ATOM    111  C   UNL     1     140.196 170.561 187.920  0.00  0.00    +0.037 C 
ATOM    112  H   UNL     1     140.050 171.424 187.266  0.00  0.00    +0.052 HD
ATOM    113  H   UNL     1     139.237 170.049 188.041  0.00  0.00    +0.052 HD
ATOM    114  H   UNL     1     140.923 169.892 187.451  0.00  0.00    +0.052 HD
ENDBRANCH 110 111
ENDBRANCH   9 110
BRANCH   5 115
ATOM    115  O   UNL     1     143.523 168.554 188.483  0.00  0.00    -0.377 OA
BRANCH 115 116
ATOM    116  C   UNL     1     143.216 167.651 187.429  0.00  0.00    +0.037 C 
ATOM    117  H   UNL     1     142.148 167.691 187.192  0.00  0.00    +0.052 HD
ATOM    118  H   UNL     1     143.507 166.629 187.687  0.00  0.00    +0.052 HD
ATOM    119  H   UNL     1     143.777 167.961 186.544  0.00  0.00    +0.052 HD
ENDBRANCH 115 116
ENDBRANCH   5 115
BRANCH   3 120
ATOM    120  O   UNL     1     144.901 167.426 192.318  0.00  0.00    -0.379 OA
BRANCH 120 121
ATOM    121  C   UNL     1     143.697 167.048 192.975  0.00  0.00    +0.037 C 
ATOM    122  H   UNL     1     143.486 167.713 193.814  0.00  0.00    +0.052 HD
ATOM    123  H   UNL     1     142.857 167.038 192.275  0.00  0.00    +0.052 HD
ATOM    124  H   UNL     1     143.826 166.035 193.365  0.00  0.00    +0.052 HD
ENDBRANCH 120 121
ENDBRANCH   3 120
TORSDOF 23
ENDMDL
MODEL 3
REMARK VINA RESULT:      -5.3      6.101     12.792
REMARK  Name = Lobophorolide_conf2
REMARK  23 active torsions:
REMARK  status: ('A' for Active; 'I' for Inactive)
REMARK    1  A    between atoms: C_1  and  C_2
REMARK    2  A    between atoms: C_4  and  O_53
REMARK    3  A    between atoms: C_6  and  C_8
REMARK    4  A    between atoms: C_8  and  C_9
REMARK    5  A    between atoms: C_9  and  C_10
REMARK    6  A    between atoms: C_10  and  C_11
REMARK    7  A    between atoms: C_10  and  C_12
REMARK    8  A    between atoms: C_12  and  C_13
REMARK    9  A    between atoms: C_12  and  O_52
REMARK   10  A    between atoms: C_13  and  C_14
REMARK   11  A    between atoms: C_13  and  C_15
REMARK   12  A    between atoms: C_16  and  C_51
REMARK   13  A    between atoms: C_17  and  O_49
REMARK   14  A    between atoms: C_19  and  O_47
REMARK   15  A    between atoms: C_23  and  O_45
REMARK   16  A    between atoms: C_32  and  O_43
REMARK   17  A    between atoms: C_33  and  O_42
REMARK   18  A    between atoms: C_35  and  C_41
REMARK   19  A    between atoms: O_43  and  C_44
REMARK   20  A    between atoms: O_45  and  C_46
REMARK   21  A    between atoms: O_47  and  C_48
REMARK   22  A    between atoms: O_49  and  C_50
REMARK   23  A    between atoms: O_53  and  C_54
REMARK                            x       y       z     vdW  Elec       q    Type
REMARK                         _______ _______ _______ _____ _____    ______ ____
ROOT
ATOM      1  C   UNL     1     152.265 166.027 189.062  0.00  0.00    +0.113 C 
ATOM      2  C   UNL     1     151.264 165.117 188.289  0.00  0.00    +0.020 C 
ATOM      3  C   UNL     1     151.466 165.228 186.739  0.00  0.00    +0.067 C 
ATOM      4  C   UNL     1     151.213 163.871 186.034  0.00  0.00    +0.003 C 
ATOM      5  C   UNL     1     152.500 163.188 185.506  0.00  0.00    +0.094 C 
ATOM      6  C   UNL     1     153.102 163.795 184.241  0.00  0.00    +0.145 C 
ATOM      7  C   UNL     1     152.167 164.208 183.104  0.00  0.00    +0.083 C 
ATOM      8  O   UNL     1     152.766 165.169 183.979  0.00  0.00    -0.363 OA
ATOM      9  C   UNL     1     154.514 163.354 183.839  0.00  0.00    +0.094 C 
ATOM     10  C   UNL     1     155.323 164.493 183.183  0.00  0.00    +0.003 C 
ATOM     11  C   UNL     1     156.658 164.137 182.511  0.00  0.00    +0.065 C 
ATOM     12  C   UNL     1     156.479 163.557 181.097  0.00  0.00    -0.008 C 
ATOM     13  C   UNL     1     157.809 163.185 180.520  0.00  0.00    -0.083 C 
ATOM     14  C   UNL     1     158.862 162.990 181.323  0.00  0.00    -0.059 C 
ATOM     15  C   UNL     1     158.793 163.077 182.830  0.00  0.00    +0.080 C 
ATOM     16  O   UNL     1     157.448 163.256 183.323  0.00  0.00    -0.369 OA
ATOM     17  C   UNL     1     159.705 164.181 183.389  0.00  0.00    +0.006 C 
ATOM     18  C   UNL     1     160.127 163.861 184.834  0.00  0.00    +0.090 C 
ATOM     19  C   UNL     1     160.216 165.135 185.711  0.00  0.00    +0.100 C 
ATOM     20  C   UNL     1     158.882 165.701 186.121  0.00  0.00    -0.051 C 
ATOM     21  C   UNL     1     157.944 165.145 186.916  0.00  0.00    -0.052 C 
ATOM     22  C   UNL     1     156.701 165.878 187.166  0.00  0.00    -0.052 C 
ATOM     23  C   UNL     1     155.674 165.431 187.903  0.00  0.00    +0.023 C 
ATOM     24  C   UNL     1     154.455 166.242 188.094  0.00  0.00    +0.332 C 
ATOM     25  O   UNL     1     154.273 167.371 187.673  0.00  0.00    -0.246 OA
ATOM     26  O   UNL     1     153.582 165.489 188.809  0.00  0.00    -0.458 OA
ATOM     27  H   UNL     1     152.176 167.050 188.679  0.00  0.00    +0.074 HD
ATOM     28  H   UNL     1     151.510 164.086 188.573  0.00  0.00    +0.036 HD
ATOM     29  H   UNL     1     152.476 165.573 186.494  0.00  0.00    +0.060 HD
ATOM     30  H   UNL     1     150.485 163.989 185.228  0.00  0.00    +0.032 HD
ATOM     31  H   UNL     1     150.740 163.182 186.743  0.00  0.00    +0.032 HD
ATOM     32  H   UNL     1     152.245 162.153 185.244  0.00  0.00    +0.063 HD
ATOM     33  H   UNL     1     151.104 164.035 183.183  0.00  0.00    +0.059 HD
ATOM     34  H   UNL     1     152.533 164.154 182.084  0.00  0.00    +0.059 HD
ATOM     35  H   UNL     1     155.076 163.034 184.726  0.00  0.00    +0.063 HD
ATOM     36  H   UNL     1     155.524 165.230 183.973  0.00  0.00    +0.032 HD
ATOM     37  H   UNL     1     154.718 165.014 182.432  0.00  0.00    +0.032 HD
ATOM     38  H   UNL     1     157.197 165.089 182.414  0.00  0.00    +0.060 HD
ATOM     39  H   UNL     1     155.993 164.300 180.454  0.00  0.00    +0.033 HD
ATOM     40  H   UNL     1     155.859 162.657 181.093  0.00  0.00    +0.033 HD
ATOM     41  H   UNL     1     157.895 163.072 179.445  0.00  0.00    +0.057 HD
ATOM     42  H   UNL     1     159.822 162.722 180.889  0.00  0.00    +0.059 HD
ATOM     43  H   UNL     1     159.124 162.103 183.212  0.00  0.00    +0.064 HD
ATOM     44  H   UNL     1     160.601 164.283 182.764  0.00  0.00    +0.032 HD
ATOM     45  H   UNL     1     159.175 165.139 183.356  0.00  0.00    +0.032 HD
ATOM     46  H   UNL     1     159.432 163.144 185.288  0.00  0.00    +0.063 HD
ATOM     47  H   UNL     1     160.775 165.908 185.167  0.00  0.00    +0.066 HD
ATOM     48  H   UNL     1     158.685 166.683 185.693  0.00  0.00    +0.060 HD
ATOM     49  H   UNL     1     156.618 166.862 186.707  0.00  0.00    +0.062 HD
ATOM     50  H   UNL     1     155.669 164.464 188.387  0.00  0.00    +0.069 HD
ENDROOT
BRANCH  21  51
ATOM     51  C   UNL     1     158.100 163.796 187.576  0.00  0.00    -0.040 C 
ATOM     52  H   UNL     1     159.076 163.364 187.332  0.00  0.00    +0.028 HD
ATOM     53  H   UNL     1     157.321 163.105 187.248  0.00  0.00    +0.028 HD
ATOM     54  H   UNL     1     158.021 163.830 188.664  0.00  0.00    +0.028 HD
ENDBRANCH  21  51
BRANCH   2  55
ATOM     55  C   UNL     1     149.799 165.374 188.672  0.00  0.00    -0.057 C 
ATOM     56  H   UNL     1     149.367 164.502 189.175  0.00  0.00    +0.023 HD
ATOM     57  H   UNL     1     149.699 166.213 189.364  0.00  0.00    +0.023 HD
ATOM     58  H   UNL     1     149.191 165.598 187.788  0.00  0.00    +0.023 HD
ENDBRANCH   2  55
BRANCH   1  59
ATOM     59  C   UNL     1     152.048 166.088 190.605  0.00  0.00    +0.020 C 
ATOM     60  H   UNL     1     151.027 165.742 190.799  0.00  0.00    +0.036 HD
BRANCH  59  61
ATOM     61  C   UNL     1     152.970 165.133 191.368  0.00  0.00    -0.057 C 
ATOM     62  H   UNL     1     153.079 164.179 190.843  0.00  0.00    +0.023 HD
ATOM     63  H   UNL     1     153.977 165.545 191.467  0.00  0.00    +0.023 HD
ATOM     64  H   UNL     1     152.607 164.946 192.379  0.00  0.00    +0.023 HD
ENDBRANCH  59  61
BRANCH  59  65
ATOM     65  C   UNL     1     152.106 167.552 191.142  0.00  0.00    +0.064 C 
ATOM     66  H   UNL     1     153.121 167.706 191.530  0.00  0.00    +0.060 HD
BRANCH  65  67
ATOM     67  C   UNL     1     151.090 167.988 192.244  0.00  0.00    -0.017 C 
ATOM     68  H   UNL     1     151.407 167.574 193.203  0.00  0.00    +0.032 HD
BRANCH  67  69
ATOM     69  C   UNL     1     151.173 169.519 192.378  0.00  0.00    -0.060 C 
ATOM     70  H   UNL     1     150.708 170.022 191.527  0.00  0.00    +0.023 HD
ATOM     71  H   UNL     1     152.214 169.862 192.444  0.00  0.00    +0.023 HD
ATOM     72  H   UNL     1     150.649 169.858 193.280  0.00  0.00    +0.023 HD
ENDBRANCH  67  69
BRANCH  67  73
ATOM     73  C   UNL     1     149.613 167.596 191.975  0.00  0.00    -0.046 C 
ATOM     74  H   UNL     1     149.312 167.915 190.975  0.00  0.00    +0.027 HD
ATOM     75  H   UNL     1     148.936 168.119 192.663  0.00  0.00    +0.027 HD
BRANCH  73  76
ATOM     76  C   UNL     1     149.320 166.085 192.062  0.00  0.00    -0.026 C 
ATOM     77  H   UNL     1     148.613 165.838 191.259  0.00  0.00    +0.029 HD
ATOM     78  H   UNL     1     150.239 165.524 191.859  0.00  0.00    +0.029 HD
BRANCH  76  83
ATOM     79  C   UNL     1     147.174 166.228 195.127  0.00  0.00    +0.059 C 
ATOM     80  C   UNL     1     148.175 165.753 196.181  0.00  0.00    -0.000 C 
ATOM     81  C   UNL     1     149.607 166.015 195.739  0.00  0.00    +0.063 C 
ATOM     82  C   UNL     1     149.846 165.321 194.401  0.00  0.00    -0.000 C 
ATOM     83  C   UNL     1     148.719 165.591 193.391  0.00  0.00    +0.061 C 
ATOM     84  O   UNL     1     147.815 166.574 193.894  0.00  0.00    -0.373 OA
ATOM     85  H   UNL     1     146.715 167.159 195.485  0.00  0.00    +0.059 HD
ATOM     86  H   UNL     1     147.974 166.253 197.139  0.00  0.00    +0.032 HD
ATOM     87  H   UNL     1     148.046 164.682 196.399  0.00  0.00    +0.032 HD
ATOM     88  H   UNL     1     149.761 167.096 195.637  0.00  0.00    +0.060 HD
ATOM     89  H   UNL     1     150.821 165.625 194.000  0.00  0.00    +0.032 HD
ATOM     90  H   UNL     1     149.942 164.236 194.548  0.00  0.00    +0.032 HD
ATOM     91  H   UNL     1     148.170 164.664 193.191  0.00  0.00    +0.060 HD
BRANCH  79  92
ATOM     92  C   UNL     1     146.041 165.226 194.917  0.00  0.00    -0.039 C 
ATOM     93  H   UNL     1     146.283 164.500 194.136  0.00  0.00    +0.025 HD
ATOM     94  H   UNL     1     145.840 164.675 195.840  0.00  0.00    +0.025 HD
ATOM     95  H   UNL     1     145.126 165.740 194.606  0.00  0.00    +0.025 HD
ENDBRANCH  79  92
BRANCH  81  96
ATOM     96  O   UNL     1     150.481 165.509 196.755  0.00  0.00    -0.380 OA
BRANCH  96  97
ATOM     97  C   UNL     1     150.913 164.174 196.513  0.00  0.00    +0.037 C 
ATOM     98  H   UNL     1     150.688 163.873 195.485  0.00  0.00    +0.052 HD
ATOM     99  H   UNL     1     151.996 164.137 196.656  0.00  0.00    +0.052 HD
ATOM    100  H   UNL     1     150.451 163.481 197.222  0.00  0.00    +0.052 HD
ENDBRANCH  96  97
ENDBRANCH  81  96
ENDBRANCH  76  83
ENDBRANCH  73  76
ENDBRANCH  67  73
ENDBRANCH  65  67
BRANCH  65 101
ATOM    101  O   UNL     1     151.986 168.453 190.029  0.00  0.00    -0.391 OA
ATOM    102  H   UNL     1     152.860 168.512 189.607  0.00  0.00    +0.210 HD
ENDBRANCH  65 101
ENDBRANCH  59  65
ENDBRANCH   1  59
BRANCH  19 103
ATOM    103  O   UNL     1     160.977 164.875 186.891  0.00  0.00    -0.385 OA
ATOM    104  H   UNL     1     160.857 163.921 187.053  0.00  0.00    +0.210 HD
ENDBRANCH  19 103
BRANCH  18 105
ATOM    105  O   UNL     1     161.454 163.277 184.777  0.00  0.00    -0.377 OA
BRANCH 105 106
ATOM    106  C   UNL     1     161.457 161.892 185.113  0.00  0.00    +0.037 C 
ATOM    107  H   UNL     1     160.442 161.484 185.070  0.00  0.00    +0.052 HD
ATOM    108  H   UNL     1     161.829 161.789 186.135  0.00  0.00    +0.052 HD
ATOM    109  H   UNL     1     162.119 161.336 184.441  0.00  0.00    +0.052 HD
ENDBRANCH 105 106
ENDBRANCH  18 105
BRANCH   9 110
ATOM    110  O   UNL     1     154.364 162.260 182.924  0.00  0.00    -0.377 OA
BRANCH 110 111
ATOM    111  C   UNL     1     154.727 161.015 183.502  0.00  0.00    +0.037 C 
ATOM    112  H   UNL     1     154.679 161.113 184.589  0.00  0.00    +0.052 HD
ATOM    113  H   UNL     1     155.750 160.748 183.221  0.00  0.00    +0.052 HD
ATOM    114  H   UNL     1     154.035 160.226 183.195  0.00  0.00    +0.052 HD
ENDBRANCH 110 111
ENDBRANCH   9 110
BRANCH   5 115
ATOM    115  O   UNL     1     153.493 163.184 186.544  0.00  0.00    -0.377 OA
BRANCH 115 116
ATOM    116  C   UNL     1     153.402 162.056 187.404  0.00  0.00    +0.037 C 
ATOM    117  H   UNL     1     153.643 162.341 188.432  0.00  0.00    +0.052 HD
ATOM    118  H   UNL     1     154.063 161.250 187.071  0.00  0.00    +0.052 HD
ATOM    119  H   UNL     1     152.371 161.694 187.379  0.00  0.00    +0.052 HD
ENDBRANCH 115 116
ENDBRANCH   5 115
BRANCH   3 120
ATOM    120  O   UNL     1     150.506 166.155 186.189  0.00  0.00    -0.379 OA
BRANCH 120 121
ATOM    121  C   UNL     1     149.601 165.553 185.271  0.00  0.00    +0.037 C 
ATOM    122  H   UNL     1     149.876 164.515 185.077  0.00  0.00    +0.052 HD
ATOM    123  H   UNL     1     148.573 165.613 185.640  0.00  0.00    +0.052 HD
ATOM    124  H   UNL     1     149.657 166.104 184.328  0.00  0.00    +0.052 HD
ENDBRANCH 120 121
ENDBRANCH   3 120
TORSDOF 23
ENDMDL
MODEL 4
REMARK VINA RESULT:      -5.3      3.451      6.237
REMARK  Name = Lobophorolide_conf2
REMARK  23 active torsions:
REMARK  status: ('A' for Active; 'I' for Inactive)
REMARK    1  A    between atoms: C_1  and  C_2
REMARK    2  A    between atoms: C_4  and  O_53
REMARK    3  A    between atoms: C_6  and  C_8
REMARK    4  A    between atoms: C_8  and  C_9
REMARK    5  A    between atoms: C_9  and  C_10
REMARK    6  A    between atoms: C_10  and  C_11
REMARK    7  A    between atoms: C_10  and  C_12
REMARK    8  A    between atoms: C_12  and  C_13
REMARK    9  A    between atoms: C_12  and  O_52
REMARK   10  A    between atoms: C_13  and  C_14
REMARK   11  A    between atoms: C_13  and  C_15
REMARK   12  A    between atoms: C_16  and  C_51
REMARK   13  A    between atoms: C_17  and  O_49
REMARK   14  A    between atoms: C_19  and  O_47
REMARK   15  A    between atoms: C_23  and  O_45
REMARK   16  A    between atoms: C_32  and  O_43
REMARK   17  A    between atoms: C_33  and  O_42
REMARK   18  A    between atoms: C_35  and  C_41
REMARK   19  A    between atoms: O_43  and  C_44
REMARK   20  A    between atoms: O_45  and  C_46
REMARK   21  A    between atoms: O_47  and  C_48
REMARK   22  A    between atoms: O_49  and  C_50
REMARK   23  A    between atoms: O_53  and  C_54
REMARK                            x       y       z     vdW  Elec       q    Type
REMARK                         _______ _______ _______ _____ _____    ______ ____
ROOT
ATOM      1  C   UNL     1     146.207 169.715 189.714  0.00  0.00    +0.113 C 
ATOM      2  C   UNL     1     146.194 169.368 188.194  0.00  0.00    +0.020 C 
ATOM      3  C   UNL     1     144.886 168.606 187.790  0.00  0.00    +0.067 C 
ATOM      4  C   UNL     1     144.416 168.999 186.366  0.00  0.00    +0.003 C 
ATOM      5  C   UNL     1     143.142 169.880 186.346  0.00  0.00    +0.094 C 
ATOM      6  C   UNL     1     141.830 169.156 186.638  0.00  0.00    +0.145 C 
ATOM      7  C   UNL     1     141.587 167.786 186.005  0.00  0.00    +0.083 C 
ATOM      8  O   UNL     1     141.939 167.931 187.385  0.00  0.00    -0.363 OA
ATOM      9  C   UNL     1     140.588 170.011 186.916  0.00  0.00    +0.094 C 
ATOM     10  C   UNL     1     139.646 169.363 187.952  0.00  0.00    +0.003 C 
ATOM     11  C   UNL     1     138.252 169.981 188.148  0.00  0.00    +0.065 C 
ATOM     12  C   UNL     1     137.247 169.536 187.073  0.00  0.00    -0.008 C 
ATOM     13  C   UNL     1     135.928 170.211 187.290  0.00  0.00    -0.083 C 
ATOM     14  C   UNL     1     135.855 171.328 188.022  0.00  0.00    -0.059 C 
ATOM     15  C   UNL     1     137.058 172.012 188.630  0.00  0.00    +0.080 C 
ATOM     16  O   UNL     1     138.309 171.413 188.228  0.00  0.00    -0.369 OA
ATOM     17  C   UNL     1     136.977 172.069 190.165  0.00  0.00    +0.006 C 
ATOM     18  C   UNL     1     137.791 173.257 190.709  0.00  0.00    +0.090 C 
ATOM     19  C   UNL     1     138.491 172.918 192.048  0.00  0.00    +0.100 C 
ATOM     20  C   UNL     1     139.698 172.027 191.910  0.00  0.00    -0.051 C 
ATOM     21  C   UNL     1     140.869 172.292 191.293  0.00  0.00    -0.052 C 
ATOM     22  C   UNL     1     141.906 171.258 191.267  0.00  0.00    -0.052 C 
ATOM     23  C   UNL     1     143.097 171.371 190.662  0.00  0.00    +0.023 C 
ATOM     24  C   UNL     1     144.078 170.269 190.684  0.00  0.00    +0.332 C 
ATOM     25  O   UNL     1     143.950 169.208 191.269  0.00  0.00    -0.246 OA
ATOM     26  O   UNL     1     145.134 170.659 189.924  0.00  0.00    -0.458 OA
ATOM     27  H   UNL     1     146.041 168.793 190.284  0.00  0.00    +0.074 HD
ATOM     28  H   UNL     1     146.184 170.330 187.665  0.00  0.00    +0.036 HD
ATOM     29  H   UNL     1     144.077 168.803 188.499  0.00  0.00    +0.060 HD
ATOM     30  H   UNL     1     144.274 168.107 185.751  0.00  0.00    +0.032 HD
ATOM     31  H   UNL     1     145.215 169.561 185.867  0.00  0.00    +0.032 HD
ATOM     32  H   UNL     1     143.034 170.289 185.333  0.00  0.00    +0.063 HD
ATOM     33  H   UNL     1     142.317 167.361 185.331  0.00  0.00    +0.059 HD
ATOM     34  H   UNL     1     140.569 167.495 185.769  0.00  0.00    +0.059 HD
ATOM     35  H   UNL     1     140.886 170.987 187.322  0.00  0.00    +0.063 HD
ATOM     36  H   UNL     1     140.172 169.394 188.917  0.00  0.00    +0.032 HD
ATOM     37  H   UNL     1     139.494 168.301 187.727  0.00  0.00    +0.032 HD
ATOM     38  H   UNL     1     137.899 169.597 189.114  0.00  0.00    +0.060 HD
ATOM     39  H   UNL     1     137.116 168.449 187.119  0.00  0.00    +0.033 HD
ATOM     40  H   UNL     1     137.579 169.789 186.063  0.00  0.00    +0.033 HD
ATOM     41  H   UNL     1     135.042 169.777 186.839  0.00  0.00    +0.057 HD
ATOM     42  H   UNL     1     134.890 171.806 188.173  0.00  0.00    +0.059 HD
ATOM     43  H   UNL     1     137.072 173.031 188.227  0.00  0.00    +0.064 HD
ATOM     44  H   UNL     1     135.932 172.170 190.484  0.00  0.00    +0.032 HD
ATOM     45  H   UNL     1     137.356 171.131 190.583  0.00  0.00    +0.032 HD
ATOM     46  H   UNL     1     138.534 173.585 189.972  0.00  0.00    +0.063 HD
ATOM     47  H   UNL     1     137.770 172.433 192.719  0.00  0.00    +0.066 HD
ATOM     48  H   UNL     1     139.563 171.051 192.373  0.00  0.00    +0.060 HD
ATOM     49  H   UNL     1     141.676 170.327 191.782  0.00  0.00    +0.062 HD
ATOM     50  H   UNL     1     143.405 172.257 190.121  0.00  0.00    +0.069 HD
ENDROOT
BRANCH  21  51
ATOM     51  C   UNL     1     141.182 173.608 190.622  0.00  0.00    -0.040 C 
ATOM     52  H   UNL     1     140.973 174.440 191.303  0.00  0.00    +0.028 HD
ATOM     53  H   UNL     1     140.585 173.739 189.716  0.00  0.00    +0.028 HD
ATOM     54  H   UNL     1     142.222 173.700 190.303  0.00  0.00    +0.028 HD
ENDBRANCH  21  51
BRANCH   2  55
ATOM     55  C   UNL     1     147.443 168.596 187.743  0.00  0.00    -0.057 C 
ATOM     56  H   UNL     1     148.330 169.238 187.767  0.00  0.00    +0.023 HD
ATOM     57  H   UNL     1     147.656 167.747 188.396  0.00  0.00    +0.023 HD
ATOM     58  H   UNL     1     147.324 168.211 186.724  0.00  0.00    +0.023 HD
ENDBRANCH   2  55
BRANCH   1  59
ATOM     59  C   UNL     1     147.531 170.352 190.236  0.00  0.00    +0.020 C 
ATOM     60  H   UNL     1     148.251 170.317 189.411  0.00  0.00    +0.036 HD
BRANCH  59  61
ATOM     61  C   UNL     1     147.370 171.831 190.595  0.00  0.00    -0.057 C 
ATOM     62  H   UNL     1     147.753 172.478 189.800  0.00  0.00    +0.023 HD
ATOM     63  H   UNL     1     146.319 172.098 190.729  0.00  0.00    +0.023 HD
ATOM     64  H   UNL     1     147.878 172.075 191.530  0.00  0.00    +0.023 HD
ENDBRANCH  59  61
BRANCH  59  65
ATOM     65  C   UNL     1     148.166 169.509 191.386  0.00  0.00    +0.064 C 
ATOM     66  H   UNL     1     148.407 170.211 192.195  0.00  0.00    +0.060 HD
BRANCH  65  67
ATOM     67  C   UNL     1     149.440 168.662 191.079  0.00  0.00    -0.017 C 
ATOM     68  H   UNL     1     149.831 168.948 190.101  0.00  0.00    +0.032 HD
BRANCH  67  69
ATOM     69  C   UNL     1     150.517 169.046 192.110  0.00  0.00    -0.060 C 
ATOM     70  H   UNL     1     151.327 168.312 192.136  0.00  0.00    +0.023 HD
ATOM     71  H   UNL     1     150.098 169.119 193.123  0.00  0.00    +0.023 HD
ATOM     72  H   UNL     1     150.966 170.014 191.859  0.00  0.00    +0.023 HD
ENDBRANCH  67  69
BRANCH  67  73
ATOM     73  C   UNL     1     149.239 167.123 191.126  0.00  0.00    -0.046 C 
ATOM     74  H   UNL     1     149.526 166.674 190.173  0.00  0.00    +0.027 HD
ATOM     75  H   UNL     1     148.180 166.870 191.260  0.00  0.00    +0.027 HD
BRANCH  73  76
ATOM     76  C   UNL     1     150.053 166.400 192.216  0.00  0.00    -0.026 C 
ATOM     77  H   UNL     1     150.589 165.572 191.734  0.00  0.00    +0.029 HD
ATOM     78  H   UNL     1     150.812 167.080 192.615  0.00  0.00    +0.029 HD
BRANCH  76  83
ATOM     79  C   UNL     1     147.527 166.398 194.980  0.00  0.00    +0.059 C 
ATOM     80  C   UNL     1     148.336 165.720 196.086  0.00  0.00    -0.000 C 
ATOM     81  C   UNL     1     149.831 165.897 195.864  0.00  0.00    +0.063 C 
ATOM     82  C   UNL     1     150.196 165.336 194.492  0.00  0.00    -0.000 C 
ATOM     83  C   UNL     1     149.240 165.819 193.388  0.00  0.00    +0.061 C 
ATOM     84  O   UNL     1     148.354 166.818 193.889  0.00  0.00    -0.373 OA
ATOM     85  H   UNL     1     147.096 167.322 195.388  0.00  0.00    +0.059 HD
ATOM     86  H   UNL     1     148.046 166.127 197.065  0.00  0.00    +0.032 HD
ATOM     87  H   UNL     1     148.097 164.648 196.154  0.00  0.00    +0.032 HD
ATOM     88  H   UNL     1     150.079 166.964 195.915  0.00  0.00    +0.060 HD
ATOM     89  H   UNL     1     151.236 165.592 194.258  0.00  0.00    +0.032 HD
ATOM     90  H   UNL     1     150.188 164.238 194.517  0.00  0.00    +0.032 HD
ATOM     91  H   UNL     1     148.655 164.974 193.009  0.00  0.00    +0.060 HD
BRANCH  79  92
ATOM     92  C   UNL     1     146.360 165.534 194.509  0.00  0.00    -0.039 C 
ATOM     93  H   UNL     1     146.477 165.231 193.464  0.00  0.00    +0.025 HD
ATOM     94  H   UNL     1     146.282 164.629 195.117  0.00  0.00    +0.025 HD
ATOM     95  H   UNL     1     145.418 166.087 194.579  0.00  0.00    +0.025 HD
ENDBRANCH  79  92
BRANCH  81  96
ATOM     96  O   UNL     1     150.517 165.203 196.913  0.00  0.00    -0.380 OA
BRANCH  96  97
ATOM     97  C   UNL     1     150.917 163.885 196.550  0.00  0.00    +0.037 C 
ATOM     98  H   UNL     1     150.109 163.365 196.026  0.00  0.00    +0.052 HD
ATOM     99  H   UNL     1     151.773 163.964 195.875  0.00  0.00    +0.052 HD
ATOM    100  H   UNL     1     151.227 163.317 197.431  0.00  0.00    +0.052 HD
ENDBRANCH  96  97
ENDBRANCH  81  96
ENDBRANCH  76  83
ENDBRANCH  73  76
ENDBRANCH  67  73
ENDBRANCH  65  67
BRANCH  65 101
ATOM    101  O   UNL     1     147.159 168.640 191.928  0.00  0.00    -0.391 OA
ATOM    102  H   UNL     1     147.232 168.678 192.896  0.00  0.00    +0.210 HD
ENDBRANCH  65 101
ENDBRANCH  59  65
ENDBRANCH   1  59
BRANCH  19 103
ATOM    103  O   UNL     1     138.890 174.114 192.719  0.00  0.00    -0.385 OA
ATOM    104  H   UNL     1     139.557 174.513 192.130  0.00  0.00    +0.210 HD
ENDBRANCH  19 103
BRANCH  18 105
ATOM    105  O   UNL     1     136.858 174.338 190.966  0.00  0.00    -0.377 OA
BRANCH 105 106
ATOM    106  C   UNL     1     137.019 175.427 190.062  0.00  0.00    +0.037 C 
ATOM    107  H   UNL     1     137.946 175.971 190.276  0.00  0.00    +0.052 HD
ATOM    108  H   UNL     1     136.177 176.111 190.196  0.00  0.00    +0.052 HD
ATOM    109  H   UNL     1     137.019 175.070 189.027  0.00  0.00    +0.052 HD
ENDBRANCH 105 106
ENDBRANCH  18 105
BRANCH   9 110
ATOM    110  O   UNL     1     139.909 170.179 185.664  0.00  0.00    -0.377 OA
BRANCH 110 111
ATOM    111  C   UNL     1     140.048 171.492 185.143  0.00  0.00    +0.037 C 
ATOM    112  H   UNL     1     139.141 172.054 185.378  0.00  0.00    +0.052 HD
ATOM    113  H   UNL     1     140.166 171.460 184.056  0.00  0.00    +0.052 HD
ATOM    114  H   UNL     1     140.899 172.005 185.598  0.00  0.00    +0.052 HD
ENDBRANCH 110 111
ENDBRANCH   9 110
BRANCH   5 115
ATOM    115  O   UNL     1     143.300 170.961 187.279  0.00  0.00    -0.377 OA
BRANCH 115 116
ATOM    116  C   UNL     1     143.958 172.092 186.722  0.00  0.00    +0.037 C 
ATOM    117  H   UNL     1     143.839 172.961 187.375  0.00  0.00    +0.052 HD
ATOM    118  H   UNL     1     143.577 172.317 185.721  0.00  0.00    +0.052 HD
ATOM    119  H   UNL     1     145.023 171.860 186.647  0.00  0.00    +0.052 HD
ENDBRANCH 115 116
ENDBRANCH   5 115
BRANCH   3 120
ATOM    120  O   UNL     1     145.144 167.186 187.753  0.00  0.00    -0.379 OA
BRANCH 120 121
ATOM    121  C   UNL     1     144.637 166.490 188.885  0.00  0.00    +0.037 C 
ATOM    122  H   UNL     1     145.032 165.473 188.925  0.00  0.00    +0.052 HD
ATOM    123  H   UNL     1     144.870 167.026 189.810  0.00  0.00    +0.052 HD
ATOM    124  H   UNL     1     143.550 166.432 188.791  0.00  0.00    +0.052 HD
ENDBRANCH 120 121
ENDBRANCH   3 120
TORSDOF 23
ENDMDL
MODEL 5
REMARK VINA RESULT:      -5.3      3.705     10.080
REMARK  Name = Lobophorolide_conf2
REMARK  23 active torsions:
REMARK  status: ('A' for Active; 'I' for Inactive)
REMARK    1  A    between atoms: C_1  and  C_2
REMARK    2  A    between atoms: C_4  and  O_53
REMARK    3  A    between atoms: C_6  and  C_8
REMARK    4  A    between atoms: C_8  and  C_9
REMARK    5  A    between atoms: C_9  and  C_10
REMARK    6  A    between atoms: C_10  and  C_11
REMARK    7  A    between atoms: C_10  and  C_12
REMARK    8  A    between atoms: C_12  and  C_13
REMARK    9  A    between atoms: C_12  and  O_52
REMARK   10  A    between atoms: C_13  and  C_14
REMARK   11  A    between atoms: C_13  and  C_15
REMARK   12  A    between atoms: C_16  and  C_51
REMARK   13  A    between atoms: C_17  and  O_49
REMARK   14  A    between atoms: C_19  and  O_47
REMARK   15  A    between atoms: C_23  and  O_45
REMARK   16  A    between atoms: C_32  and  O_43
REMARK   17  A    between atoms: C_33  and  O_42
REMARK   18  A    between atoms: C_35  and  C_41
REMARK   19  A    between atoms: O_43  and  C_44
REMARK   20  A    between atoms: O_45  and  C_46
REMARK   21  A    between atoms: O_47  and  C_48
REMARK   22  A    between atoms: O_49  and  C_50
REMARK   23  A    between atoms: O_53  and  C_54
REMARK                            x       y       z     vdW  Elec       q    Type
REMARK                         _______ _______ _______ _____ _____    ______ ____
ROOT
ATOM      1  C   UNL     1     144.049 165.459 187.456  0.00  0.00    +0.113 C 
ATOM      2  C   UNL     1     143.484 166.291 188.647  0.00  0.00    +0.020 C 
ATOM      3  C   UNL     1     144.194 165.921 189.994  0.00  0.00    +0.067 C 
ATOM      4  C   UNL     1     144.353 167.160 190.911  0.00  0.00    +0.003 C 
ATOM      5  C   UNL     1     145.810 167.674 191.027  0.00  0.00    +0.094 C 
ATOM      6  C   UNL     1     146.739 166.837 191.904  0.00  0.00    +0.145 C 
ATOM      7  C   UNL     1     146.213 166.304 193.237  0.00  0.00    +0.083 C 
ATOM      8  O   UNL     1     146.363 165.461 192.089  0.00  0.00    -0.363 OA
ATOM      9  C   UNL     1     148.244 167.124 191.828  0.00  0.00    +0.094 C 
ATOM     10  C   UNL     1     149.096 165.850 191.999  0.00  0.00    +0.003 C 
ATOM     11  C   UNL     1     150.612 166.014 192.190  0.00  0.00    +0.065 C 
ATOM     12  C   UNL     1     150.997 166.370 193.636  0.00  0.00    -0.008 C 
ATOM     13  C   UNL     1     152.477 166.566 193.742  0.00  0.00    -0.083 C 
ATOM     14  C   UNL     1     153.203 166.824 192.649  0.00  0.00    -0.059 C 
ATOM     15  C   UNL     1     152.610 166.983 191.268  0.00  0.00    +0.080 C 
ATOM     16  O   UNL     1     151.167 166.965 191.269  0.00  0.00    -0.369 OA
ATOM     17  C   UNL     1     153.144 165.931 190.283  0.00  0.00    +0.006 C 
ATOM     18  C   UNL     1     153.075 166.453 188.836  0.00  0.00    +0.090 C 
ATOM     19  C   UNL     1     152.714 165.332 187.830  0.00  0.00    +0.100 C 
ATOM     20  C   UNL     1     151.266 164.919 187.854  0.00  0.00    -0.051 C 
ATOM     21  C   UNL     1     150.180 165.650 187.525  0.00  0.00    -0.052 C 
ATOM     22  C   UNL     1     148.853 165.041 187.644  0.00  0.00    -0.052 C 
ATOM     23  C   UNL     1     147.692 165.659 187.387  0.00  0.00    +0.023 C 
ATOM     24  C   UNL     1     146.400 164.962 187.542  0.00  0.00    +0.332 C 
ATOM     25  O   UNL     1     146.249 163.793 187.851  0.00  0.00    -0.246 OA
ATOM     26  O   UNL     1     145.424 165.871 187.289  0.00  0.00    -0.458 OA
ATOM     27  H   UNL     1     143.983 164.395 187.711  0.00  0.00    +0.074 HD
ATOM     28  H   UNL     1     143.731 167.337 188.428  0.00  0.00    +0.036 HD
ATOM     29  H   UNL     1     145.180 165.483 189.815  0.00  0.00    +0.060 HD
ATOM     30  H   UNL     1     143.938 166.958 191.902  0.00  0.00    +0.032 HD
ATOM     31  H   UNL     1     143.744 167.981 190.513  0.00  0.00    +0.032 HD
ATOM     32  H   UNL     1     145.779 168.667 191.494  0.00  0.00    +0.063 HD
ATOM     33  H   UNL     1     145.215 166.550 193.566  0.00  0.00    +0.059 HD
ATOM     34  H   UNL     1     146.912 166.172 194.057  0.00  0.00    +0.059 HD
ATOM     35  H   UNL     1     148.497 167.548 190.848  0.00  0.00    +0.063 HD
ATOM     36  H   UNL     1     148.929 165.237 191.102  0.00  0.00    +0.032 HD
ATOM     37  H   UNL     1     148.733 165.251 192.843  0.00  0.00    +0.032 HD
ATOM     38  H   UNL     1     151.041 165.028 191.965  0.00  0.00    +0.060 HD
ATOM     39  H   UNL     1     150.683 165.563 194.309  0.00  0.00    +0.033 HD
ATOM     40  H   UNL     1     150.521 167.293 193.978  0.00  0.00    +0.033 HD
ATOM     41  H   UNL     1     152.941 166.500 194.721  0.00  0.00    +0.057 HD
ATOM     42  H   UNL     1     154.278 166.962 192.741  0.00  0.00    +0.059 HD
ATOM     43  H   UNL     1     152.896 167.984 190.922  0.00  0.00    +0.064 HD
ATOM     44  H   UNL     1     154.184 165.678 190.527  0.00  0.00    +0.032 HD
ATOM     45  H   UNL     1     152.555 165.013 190.380  0.00  0.00    +0.032 HD
ATOM     46  H   UNL     1     152.352 167.273 188.758  0.00  0.00    +0.063 HD
ATOM     47  H   UNL     1     153.336 164.451 188.033  0.00  0.00    +0.066 HD
ATOM     48  H   UNL     1     151.120 163.895 188.194  0.00  0.00    +0.060 HD
ATOM     49  H   UNL     1     148.824 164.002 187.971  0.00  0.00    +0.062 HD
ATOM     50  H   UNL     1     147.628 166.690 187.066  0.00  0.00    +0.069 HD
ENDROOT
BRANCH  21  51
ATOM     51  C   UNL     1     150.249 167.075 187.032  0.00  0.00    -0.040 C 
ATOM     52  H   UNL     1     149.520 167.236 186.231  0.00  0.00    +0.028 HD
ATOM     53  H   UNL     1     151.246 167.311 186.651  0.00  0.00    +0.028 HD
ATOM     54  H   UNL     1     150.051 167.816 187.808  0.00  0.00    +0.028 HD
ENDBRANCH  21  51
BRANCH   2  55
ATOM     55  C   UNL     1     141.957 166.185 188.783  0.00  0.00    -0.057 C 
ATOM     56  H   UNL     1     141.481 166.104 187.800  0.00  0.00    +0.023 HD
ATOM     57  H   UNL     1     141.658 165.299 189.347  0.00  0.00    +0.023 HD
ATOM     58  H   UNL     1     141.543 167.062 189.295  0.00  0.00    +0.023 HD
ENDBRANCH   2  55
BRANCH   1  59
ATOM     59  C   UNL     1     143.308 165.658 186.098  0.00  0.00    +0.020 C 
ATOM     60  H   UNL     1     142.350 166.141 186.324  0.00  0.00    +0.036 HD
BRANCH  59  61
ATOM     61  C   UNL     1     144.050 166.610 185.157  0.00  0.00    -0.057 C 
ATOM     62  H   UNL     1     145.135 166.508 185.259  0.00  0.00    +0.023 HD
ATOM     63  H   UNL     1     143.818 166.399 184.111  0.00  0.00    +0.023 HD
ATOM     64  H   UNL     1     143.771 167.650 185.336  0.00  0.00    +0.023 HD
ENDBRANCH  59  61
BRANCH  59  65
ATOM     65  C   UNL     1     142.946 164.296 185.429  0.00  0.00    +0.064 C 
ATOM     66  H   UNL     1     142.764 164.505 184.367  0.00  0.00    +0.060 HD
BRANCH  65  67
ATOM     67  C   UNL     1     141.731 163.488 185.982  0.00  0.00    -0.017 C 
ATOM     68  H   UNL     1     141.116 164.147 186.598  0.00  0.00    +0.032 HD
BRANCH  67  69
ATOM     69  C   UNL     1     140.860 163.072 184.782  0.00  0.00    -0.060 C 
ATOM     70  H   UNL     1     139.811 162.956 185.069  0.00  0.00    +0.023 HD
ATOM     71  H   UNL     1     141.197 162.121 184.350  0.00  0.00    +0.023 HD
ATOM     72  H   UNL     1     140.898 163.833 183.994  0.00  0.00    +0.023 HD
ENDBRANCH  67  69
BRANCH  67  73
ATOM     73  C   UNL     1     142.096 162.214 186.791  0.00  0.00    -0.046 C 
ATOM     74  H   UNL     1     143.027 161.783 186.419  0.00  0.00    +0.027 HD
ATOM     75  H   UNL     1     141.338 161.432 186.656  0.00  0.00    +0.027 HD
BRANCH  73  76
ATOM     76  C   UNL     1     142.290 162.445 188.302  0.00  0.00    -0.026 C 
ATOM     77  H   UNL     1     142.638 163.477 188.438  0.00  0.00    +0.029 HD
ATOM     78  H   UNL     1     141.323 162.367 188.810  0.00  0.00    +0.029 HD
BRANCH  76  83
ATOM     79  C   UNL     1     145.066 159.942 188.540  0.00  0.00    +0.059 C 
ATOM     80  C   UNL     1     144.482 158.989 189.583  0.00  0.00    -0.000 C 
ATOM     81  C   UNL     1     142.962 159.060 189.607  0.00  0.00    +0.063 C 
ATOM     82  C   UNL     1     142.540 160.500 189.880  0.00  0.00    -0.000 C 
ATOM     83  C   UNL     1     143.295 161.511 189.002  0.00  0.00    +0.061 C 
ATOM     84  O   UNL     1     144.078 160.837 188.017  0.00  0.00    -0.373 OA
ATOM     85  H   UNL     1     145.401 159.348 187.681  0.00  0.00    +0.059 HD
ATOM     86  H   UNL     1     144.812 157.961 189.376  0.00  0.00    +0.032 HD
ATOM     87  H   UNL     1     144.877 159.205 190.587  0.00  0.00    +0.032 HD
ATOM     88  H   UNL     1     142.571 158.728 188.637  0.00  0.00    +0.060 HD
ATOM     89  H   UNL     1     141.454 160.594 189.750  0.00  0.00    +0.032 HD
ATOM     90  H   UNL     1     142.706 160.750 190.937  0.00  0.00    +0.032 HD
ATOM     91  H   UNL     1     143.953 162.126 189.626  0.00  0.00    +0.060 HD
BRANCH  79  92
ATOM     92  C   UNL     1     146.288 160.691 189.066  0.00  0.00    -0.039 C 
ATOM     93  H   UNL     1     147.219 160.183 188.797  0.00  0.00    +0.025 HD
ATOM     94  H   UNL     1     146.324 161.704 188.656  0.00  0.00    +0.025 HD
ATOM     95  H   UNL     1     146.261 160.753 190.159  0.00  0.00    +0.025 HD
ENDBRANCH  79  92
BRANCH  81  96
ATOM     96  O   UNL     1     142.496 158.173 190.631  0.00  0.00    -0.380 OA
BRANCH  96  97
ATOM     97  C   UNL     1     143.457 157.191 191.006  0.00  0.00    +0.037 C 
ATOM     98  H   UNL     1     144.327 157.659 191.475  0.00  0.00    +0.052 HD
ATOM     99  H   UNL     1     142.991 156.520 191.731  0.00  0.00    +0.052 HD
ATOM    100  H   UNL     1     143.765 156.598 190.140  0.00  0.00    +0.052 HD
ENDBRANCH  96  97
ENDBRANCH  81  96
ENDBRANCH  76  83
ENDBRANCH  73  76
ENDBRANCH  67  73
ENDBRANCH  65  67
BRANCH  65 101
ATOM    101  O   UNL     1     144.107 163.450 185.455  0.00  0.00    -0.391 OA
ATOM    102  H   UNL     1     144.757 163.866 186.046  0.00  0.00    +0.210 HD
ENDBRANCH  65 101
ENDBRANCH  59  65
ENDBRANCH   1  59
BRANCH  19 103
ATOM    103  O   UNL     1     153.045 165.732 186.499  0.00  0.00    -0.385 OA
ATOM    104  H   UNL     1     152.247 166.189 186.176  0.00  0.00    +0.210 HD
ENDBRANCH  19 103
BRANCH  18 105
ATOM    105  O   UNL     1     154.397 166.941 188.490  0.00  0.00    -0.377 OA
BRANCH 105 106
ATOM    106  C   UNL     1     155.437 166.191 189.112  0.00  0.00    +0.037 C 
ATOM    107  H   UNL     1     155.456 166.380 190.190  0.00  0.00    +0.052 HD
ATOM    108  H   UNL     1     156.392 166.513 188.687  0.00  0.00    +0.052 HD
ATOM    109  H   UNL     1     155.309 165.122 188.915  0.00  0.00    +0.052 HD
ENDBRANCH 105 106
ENDBRANCH  18 105
BRANCH   9 110
ATOM    110  O   UNL     1     148.542 168.064 192.869  0.00  0.00    -0.377 OA
BRANCH 110 111
ATOM    111  C   UNL     1     148.757 169.376 192.371  0.00  0.00    +0.037 C 
ATOM    112  H   UNL     1     148.170 169.499 191.457  0.00  0.00    +0.052 HD
ATOM    113  H   UNL     1     149.813 169.523 192.129  0.00  0.00    +0.052 HD
ATOM    114  H   UNL     1     148.429 170.128 193.094  0.00  0.00    +0.052 HD
ENDBRANCH 110 111
ENDBRANCH   9 110
BRANCH   5 115
ATOM    115  O   UNL     1     146.379 167.785 189.713  0.00  0.00    -0.377 OA
BRANCH 115 116
ATOM    116  C   UNL     1     146.249 169.086 189.154  0.00  0.00    +0.037 C 
ATOM    117  H   UNL     1     145.200 169.301 188.931  0.00  0.00    +0.052 HD
ATOM    118  H   UNL     1     146.855 169.189 188.249  0.00  0.00    +0.052 HD
ATOM    119  H   UNL     1     146.601 169.809 189.894  0.00  0.00    +0.052 HD
ENDBRANCH 115 116
ENDBRANCH   5 115
BRANCH   3 120
ATOM    120  O   UNL     1     143.384 164.977 190.726  0.00  0.00    -0.379 OA
BRANCH 120 121
ATOM    121  C   UNL     1     142.889 165.492 191.956  0.00  0.00    +0.037 C 
ATOM    122  H   UNL     1     142.274 164.749 192.469  0.00  0.00    +0.052 HD
ATOM    123  H   UNL     1     143.709 165.818 192.601  0.00  0.00    +0.052 HD
ATOM    124  H   UNL     1     142.263 166.361 191.735  0.00  0.00    +0.052 HD
ENDBRANCH 120 121
ENDBRANCH   3 120
TORSDOF 23
ENDMDL
MODEL 6
REMARK VINA RESULT:      -5.3      3.595      7.337
REMARK  Name = Lobophorolide_conf2
REMARK  23 active torsions:
REMARK  status: ('A' for Active; 'I' for Inactive)
REMARK    1  A    between atoms: C_1  and  C_2
REMARK    2  A    between atoms: C_4  and  O_53
REMARK    3  A    between atoms: C_6  and  C_8
REMARK    4  A    between atoms: C_8  and  C_9
REMARK    5  A    between atoms: C_9  and  C_10
REMARK    6  A    between atoms: C_10  and  C_11
REMARK    7  A    between atoms: C_10  and  C_12
REMARK    8  A    between atoms: C_12  and  C_13
REMARK    9  A    between atoms: C_12  and  O_52
REMARK   10  A    between atoms: C_13  and  C_14
REMARK   11  A    between atoms: C_13  and  C_15
REMARK   12  A    between atoms: C_16  and  C_51
REMARK   13  A    between atoms: C_17  and  O_49
REMARK   14  A    between atoms: C_19  and  O_47
REMARK   15  A    between atoms: C_23  and  O_45
REMARK   16  A    between atoms: C_32  and  O_43
REMARK   17  A    between atoms: C_33  and  O_42
REMARK   18  A    between atoms: C_35  and  C_41
REMARK   19  A    between atoms: O_43  and  C_44
REMARK   20  A    between atoms: O_45  and  C_46
REMARK   21  A    between atoms: O_47  and  C_48
REMARK   22  A    between atoms: O_49  and  C_50
REMARK   23  A    between atoms: O_53  and  C_54
REMARK                            x       y       z     vdW  Elec       q    Type
REMARK                         _______ _______ _______ _____ _____    ______ ____
ROOT
ATOM      1  C   UNL     1     153.171 164.445 187.279  0.00  0.00    +0.113 C 
ATOM      2  C   UNL     1     152.762 163.476 186.129  0.00  0.00    +0.020 C 
ATOM      3  C   UNL     1     151.613 162.508 186.574  0.00  0.00    +0.067 C 
ATOM      4  C   UNL     1     150.639 162.207 185.406  0.00  0.00    +0.003 C 
ATOM      5  C   UNL     1     149.254 162.885 185.552  0.00  0.00    +0.094 C 
ATOM      6  C   UNL     1     148.311 162.252 186.574  0.00  0.00    +0.145 C 
ATOM      7  C   UNL     1     148.212 160.728 186.640  0.00  0.00    +0.083 C 
ATOM      8  O   UNL     1     148.936 161.484 187.617  0.00  0.00    -0.363 OA
ATOM      9  C   UNL     1     147.055 163.037 186.969  0.00  0.00    +0.094 C 
ATOM     10  C   UNL     1     146.669 162.825 188.448  0.00  0.00    +0.003 C 
ATOM     11  C   UNL     1     145.304 163.349 188.922  0.00  0.00    +0.065 C 
ATOM     12  C   UNL     1     144.145 162.401 188.565  0.00  0.00    -0.008 C 
ATOM     13  C   UNL     1     142.843 162.992 189.006  0.00  0.00    -0.083 C 
ATOM     14  C   UNL     1     142.742 164.306 189.238  0.00  0.00    -0.059 C 
ATOM     15  C   UNL     1     143.878 165.282 189.036  0.00  0.00    +0.080 C 
ATOM     16  O   UNL     1     145.042 164.674 188.436  0.00  0.00    -0.369 OA
ATOM     17  C   UNL     1     144.273 165.990 190.342  0.00  0.00    +0.006 C 
ATOM     18  C   UNL     1     144.912 167.359 190.048  0.00  0.00    +0.090 C 
ATOM     19  C   UNL     1     146.058 167.691 191.035  0.00  0.00    +0.100 C 
ATOM     20  C   UNL     1     147.334 166.931 190.784  0.00  0.00    -0.051 C 
ATOM     21  C   UNL     1     148.154 166.999 189.714  0.00  0.00    -0.052 C 
ATOM     22  C   UNL     1     149.343 166.145 189.676  0.00  0.00    -0.052 C 
ATOM     23  C   UNL     1     150.220 166.085 188.664  0.00  0.00    +0.023 C 
ATOM     24  C   UNL     1     151.390 165.186 188.714  0.00  0.00    +0.332 C 
ATOM     25  O   UNL     1     151.707 164.474 189.651  0.00  0.00    -0.246 OA
ATOM     26  O   UNL     1     152.028 165.295 187.521  0.00  0.00    -0.458 OA
ATOM     27  H   UNL     1     153.416 163.849 188.167  0.00  0.00    +0.074 HD
ATOM     28  H   UNL     1     152.359 164.110 185.329  0.00  0.00    +0.036 HD
ATOM     29  H   UNL     1     151.045 162.925 187.411  0.00  0.00    +0.060 HD
ATOM     30  H   UNL     1     150.525 161.129 185.271  0.00  0.00    +0.032 HD
ATOM     31  H   UNL     1     151.084 162.563 184.468  0.00  0.00    +0.032 HD
ATOM     32  H   UNL     1     148.738 162.805 184.586  0.00  0.00    +0.063 HD
ATOM     33  H   UNL     1     148.771 160.115 185.948  0.00  0.00    +0.059 HD
ATOM     34  H   UNL     1     147.270 160.281 186.941  0.00  0.00    +0.059 HD
ATOM     35  H   UNL     1     147.226 164.113 186.836  0.00  0.00    +0.063 HD
ATOM     36  H   UNL     1     147.449 163.313 189.050  0.00  0.00    +0.032 HD
ATOM     37  H   UNL     1     146.709 161.761 188.710  0.00  0.00    +0.032 HD
ATOM     38  H   UNL     1     145.374 163.392 190.016  0.00  0.00    +0.060 HD
ATOM     39  H   UNL     1     144.296 161.434 189.058  0.00  0.00    +0.033 HD
ATOM     40  H   UNL     1     144.073 162.220 187.490  0.00  0.00    +0.033 HD
ATOM     41  H   UNL     1     141.988 162.334 189.127  0.00  0.00    +0.057 HD
ATOM     42  H   UNL     1     141.790 164.720 189.560  0.00  0.00    +0.059 HD
ATOM     43  H   UNL     1     143.522 166.024 188.311  0.00  0.00    +0.064 HD
ATOM     44  H   UNL     1     143.389 166.132 190.977  0.00  0.00    +0.032 HD
ATOM     45  H   UNL     1     144.975 165.359 190.897  0.00  0.00    +0.032 HD
ATOM     46  H   UNL     1     145.285 167.396 189.017  0.00  0.00    +0.063 HD
ATOM     47  H   UNL     1     145.721 167.486 192.060  0.00  0.00    +0.066 HD
ATOM     48  H   UNL     1     147.587 166.243 191.590  0.00  0.00    +0.060 HD
ATOM     49  H   UNL     1     149.513 165.513 190.545  0.00  0.00    +0.062 HD
ATOM     50  H   UNL     1     150.123 166.672 187.760  0.00  0.00    +0.069 HD
ENDROOT
BRANCH  21  51
ATOM     51  C   UNL     1     147.919 167.917 188.539  0.00  0.00    -0.040 C 
ATOM     52  H   UNL     1     148.870 168.171 188.058  0.00  0.00    +0.028 HD
ATOM     53  H   UNL     1     147.430 168.842 188.854  0.00  0.00    +0.028 HD
ATOM     54  H   UNL     1     147.269 167.491 187.773  0.00  0.00    +0.028 HD
ENDBRANCH  21  51
BRANCH   2  55
ATOM     55  C   UNL     1     153.951 162.691 185.553  0.00  0.00    -0.057 C 
ATOM     56  H   UNL     1     154.545 162.238 186.353  0.00  0.00    +0.023 HD
ATOM     57  H   UNL     1     153.625 161.873 184.907  0.00  0.00    +0.023 HD
ATOM     58  H   UNL     1     154.607 163.341 184.963  0.00  0.00    +0.023 HD
ENDBRANCH   2  55
BRANCH   1  59
ATOM     59  C   UNL     1     154.402 165.352 186.975  0.00  0.00    +0.020 C 
ATOM     60  H   UNL     1     155.235 164.688 186.717  0.00  0.00    +0.036 HD
BRANCH  59  61
ATOM     61  C   UNL     1     154.184 166.250 185.754  0.00  0.00    -0.057 C 
ATOM     62  H   UNL     1     153.630 167.156 186.019  0.00  0.00    +0.023 HD
ATOM     63  H   UNL     1     155.133 166.583 185.329  0.00  0.00    +0.023 HD
ATOM     64  H   UNL     1     153.651 165.725 184.960  0.00  0.00    +0.023 HD
ENDBRANCH  59  61
BRANCH  59  65
ATOM     65  C   UNL     1     154.869 166.141 188.238  0.00  0.00    +0.064 C 
ATOM     66  H   UNL     1     155.879 166.513 188.022  0.00  0.00    +0.060 HD
BRANCH  65  67
ATOM     67  C   UNL     1     154.904 165.402 189.613  0.00  0.00    -0.017 C 
ATOM     68  H   UNL     1     154.321 164.483 189.538  0.00  0.00    +0.032 HD
BRANCH  67  69
ATOM     69  C   UNL     1     156.360 164.977 189.879  0.00  0.00    -0.060 C 
ATOM     70  H   UNL     1     156.943 165.793 190.313  0.00  0.00    +0.023 HD
ATOM     71  H   UNL     1     156.862 164.659 188.955  0.00  0.00    +0.023 HD
ATOM     72  H   UNL     1     156.395 164.141 190.587  0.00  0.00    +0.023 HD
ENDBRANCH  67  69
BRANCH  67  73
ATOM     73  C   UNL     1     154.404 166.234 190.824  0.00  0.00    -0.046 C 
ATOM     74  H   UNL     1     153.714 167.013 190.491  0.00  0.00    +0.027 HD
ATOM     75  H   UNL     1     155.235 166.768 191.303  0.00  0.00    +0.027 HD
BRANCH  73  76
ATOM     76  C   UNL     1     153.663 165.421 191.903  0.00  0.00    -0.026 C 
ATOM     77  H   UNL     1     153.164 164.582 191.400  0.00  0.00    +0.029 HD
ATOM     78  H   UNL     1     154.390 164.989 192.597  0.00  0.00    +0.029 HD
BRANCH  76  83
ATOM     79  C   UNL     1     150.255 166.161 193.269  0.00  0.00    +0.059 C 
ATOM     80  C   UNL     1     150.189 167.669 193.028  0.00  0.00    -0.000 C 
ATOM     81  C   UNL     1     151.115 168.089 191.896  0.00  0.00    +0.063 C 
ATOM     82  C   UNL     1     152.536 167.648 192.232  0.00  0.00    -0.000 C 
ATOM     83  C   UNL     1     152.600 166.188 192.711  0.00  0.00    +0.061 C 
ATOM     84  O   UNL     1     151.334 165.549 192.552  0.00  0.00    -0.373 OA
ATOM     85  H   UNL     1     149.343 165.708 192.859  0.00  0.00    +0.059 HD
ATOM     86  H   UNL     1     149.155 167.967 192.804  0.00  0.00    +0.032 HD
ATOM     87  H   UNL     1     150.443 168.230 193.940  0.00  0.00    +0.032 HD
ATOM     88  H   UNL     1     150.782 167.617 190.964  0.00  0.00    +0.060 HD
ATOM     89  H   UNL     1     153.184 167.809 191.361  0.00  0.00    +0.032 HD
ATOM     90  H   UNL     1     152.963 168.298 193.008  0.00  0.00    +0.032 HD
ATOM     91  H   UNL     1     152.889 166.157 193.767  0.00  0.00    +0.060 HD
BRANCH  79  92
ATOM     92  C   UNL     1     150.294 165.816 194.755  0.00  0.00    -0.039 C 
ATOM     93  H   UNL     1     150.791 166.597 195.338  0.00  0.00    +0.025 HD
ATOM     94  H   UNL     1     149.280 165.694 195.147  0.00  0.00    +0.025 HD
ATOM     95  H   UNL     1     150.850 164.888 194.921  0.00  0.00    +0.025 HD
ENDBRANCH  79  92
BRANCH  81  96
ATOM     96  O   UNL     1     151.026 169.513 191.761  0.00  0.00    -0.380 OA
BRANCH  96  97
ATOM     97  C   UNL     1     149.687 169.996 191.756  0.00  0.00    +0.037 C 
ATOM     98  H   UNL     1     149.598 170.886 191.125  0.00  0.00    +0.052 HD
ATOM     99  H   UNL     1     149.045 169.213 191.343  0.00  0.00    +0.052 HD
ATOM    100  H   UNL     1     149.349 170.215 192.772  0.00  0.00    +0.052 HD
ENDBRANCH  96  97
ENDBRANCH  81  96
ENDBRANCH  76  83
ENDBRANCH  73  76
ENDBRANCH  67  73
ENDBRANCH  65  67
BRANCH  65 101
ATOM    101  O   UNL     1     154.054 167.316 188.372  0.00  0.00    -0.391 OA
ATOM    102  H   UNL     1     154.633 168.087 188.254  0.00  0.00    +0.210 HD
ENDBRANCH  65 101
ENDBRANCH  59  65
ENDBRANCH   1  59
BRANCH  19 103
ATOM    103  O   UNL     1     146.353 169.088 191.005  0.00  0.00    -0.385 OA
ATOM    104  H   UNL     1     146.105 169.409 191.892  0.00  0.00    +0.210 HD
ENDBRANCH  19 103
BRANCH  18 105
ATOM    105  O   UNL     1     143.880 168.364 190.224  0.00  0.00    -0.377 OA
BRANCH 105 106
ATOM    106  C   UNL     1     143.003 168.064 191.306  0.00  0.00    +0.037 C 
ATOM    107  H   UNL     1     142.657 168.984 191.788  0.00  0.00    +0.052 HD
ATOM    108  H   UNL     1     143.558 167.475 192.041  0.00  0.00    +0.052 HD
ATOM    109  H   UNL     1     142.151 167.473 190.956  0.00  0.00    +0.052 HD
ENDBRANCH 105 106
ENDBRANCH  18 105
BRANCH   9 110
ATOM    110  O   UNL     1     145.997 162.590 186.111  0.00  0.00    -0.377 OA
BRANCH 110 111
ATOM    111  C   UNL     1     145.647 163.558 185.132  0.00  0.00    +0.037 C 
ATOM    112  H   UNL     1     144.581 163.776 185.229  0.00  0.00    +0.052 HD
ATOM    113  H   UNL     1     145.833 163.168 184.127  0.00  0.00    +0.052 HD
ATOM    114  H   UNL     1     146.205 164.486 185.284  0.00  0.00    +0.052 HD
ENDBRANCH 110 111
ENDBRANCH   9 110
BRANCH   5 115
ATOM    115  O   UNL     1     149.437 164.272 185.879  0.00  0.00    -0.377 OA
BRANCH 115 116
ATOM    116  C   UNL     1     149.569 165.105 184.735  0.00  0.00    +0.037 C 
ATOM    117  H   UNL     1     148.672 165.719 184.606  0.00  0.00    +0.052 HD
ATOM    118  H   UNL     1     149.752 164.513 183.833  0.00  0.00    +0.052 HD
ATOM    119  H   UNL     1     150.422 165.769 184.896  0.00  0.00    +0.052 HD
ENDBRANCH 115 116
ENDBRANCH   5 115
BRANCH   3 120
ATOM    120  O   UNL     1     152.174 161.239 186.970  0.00  0.00    -0.379 OA
BRANCH 120 121
ATOM    121  C   UNL     1     152.228 161.060 188.380  0.00  0.00    +0.037 C 
ATOM    122  H   UNL     1     151.574 161.771 188.888  0.00  0.00    +0.052 HD
ATOM    123  H   UNL     1     151.963 160.035 188.654  0.00  0.00    +0.052 HD
ATOM    124  H   UNL     1     153.255 161.245 188.708  0.00  0.00    +0.052 HD
ENDBRANCH 120 121
ENDBRANCH   3 120
TORSDOF 23
ENDMDL
MODEL 7
REMARK VINA RESULT:      -5.2      3.727      7.203
REMARK  Name = Lobophorolide_conf2
REMARK  23 active torsions:
REMARK  status: ('A' for Active; 'I' for Inactive)
REMARK    1  A    between atoms: C_1  and  C_2
REMARK    2  A    between atoms: C_4  and  O_53
REMARK    3  A    between atoms: C_6  and  C_8
REMARK    4  A    between atoms: C_8  and  C_9
REMARK    5  A    between atoms: C_9  and  C_10
REMARK    6  A    between atoms: C_10  and  C_11
REMARK    7  A    between atoms: C_10  and  C_12
REMARK    8  A    between atoms: C_12  and  C_13
REMARK    9  A    between atoms: C_12  and  O_52
REMARK   10  A    between atoms: C_13  and  C_14
REMARK   11  A    between atoms: C_13  and  C_15
REMARK   12  A    between atoms: C_16  and  C_51
REMARK   13  A    between atoms: C_17  and  O_49
REMARK   14  A    between atoms: C_19  and  O_47
REMARK   15  A    between atoms: C_23  and  O_45
REMARK   16  A    between atoms: C_32  and  O_43
REMARK   17  A    between atoms: C_33  and  O_42
REMARK   18  A    between atoms: C_35  and  C_41
REMARK   19  A    between atoms: O_43  and  C_44
REMARK   20  A    between atoms: O_45  and  C_46
REMARK   21  A    between atoms: O_47  and  C_48
REMARK   22  A    between atoms: O_49  and  C_50
REMARK   23  A    between atoms: O_53  and  C_54
REMARK                            x       y       z     vdW  Elec       q    Type
REMARK                         _______ _______ _______ _____ _____    ______ ____
ROOT
ATOM      1  C   UNL     1     144.559 169.509 189.268  0.00  0.00    +0.113 C 
ATOM      2  C   UNL     1     143.943 169.359 187.845  0.00  0.00    +0.020 C 
ATOM      3  C   UNL     1     142.425 168.976 187.913  0.00  0.00    +0.067 C 
ATOM      4  C   UNL     1     141.620 169.635 186.764  0.00  0.00    +0.003 C 
ATOM      5  C   UNL     1     140.691 170.785 187.226  0.00  0.00    +0.094 C 
ATOM      6  C   UNL     1     139.415 170.357 187.947  0.00  0.00    +0.145 C 
ATOM      7  C   UNL     1     138.624 169.168 187.403  0.00  0.00    +0.083 C 
ATOM      8  O   UNL     1     139.447 169.061 188.570  0.00  0.00    -0.363 OA
ATOM      9  C   UNL     1     138.609 171.439 188.675  0.00  0.00    +0.094 C 
ATOM     10  C   UNL     1     137.939 170.911 189.960  0.00  0.00    +0.003 C 
ATOM     11  C   UNL     1     136.906 171.808 190.660  0.00  0.00    +0.065 C 
ATOM     12  C   UNL     1     135.516 171.742 190.003  0.00  0.00    -0.008 C 
ATOM     13  C   UNL     1     134.573 172.675 190.696  0.00  0.00    -0.083 C 
ATOM     14  C   UNL     1     135.046 173.683 191.438  0.00  0.00    -0.059 C 
ATOM     15  C   UNL     1     136.518 173.989 191.595  0.00  0.00    +0.080 C 
ATOM     16  O   UNL     1     137.356 173.168 190.755  0.00  0.00    -0.369 OA
ATOM     17  C   UNL     1     136.978 173.882 193.058  0.00  0.00    +0.006 C 
ATOM     18  C   UNL     1     138.208 174.773 193.309  0.00  0.00    +0.090 C 
ATOM     19  C   UNL     1     139.206 174.123 194.299  0.00  0.00    +0.100 C 
ATOM     20  C   UNL     1     140.018 172.998 193.713  0.00  0.00    -0.051 C 
ATOM     21  C   UNL     1     140.938 173.054 192.725  0.00  0.00    -0.052 C 
ATOM     22  C   UNL     1     141.597 171.817 192.300  0.00  0.00    -0.052 C 
ATOM     23  C   UNL     1     142.499 171.721 191.313  0.00  0.00    +0.023 C 
ATOM     24  C   UNL     1     143.107 170.425 190.952  0.00  0.00    +0.332 C 
ATOM     25  O   UNL     1     142.912 169.361 191.513  0.00  0.00    -0.246 OA
ATOM     26  O   UNL     1     143.906 170.646 189.876  0.00  0.00    -0.458 OA
ATOM     27  H   UNL     1     144.362 168.590 189.833  0.00  0.00    +0.074 HD
ATOM     28  H   UNL     1     144.005 170.352 187.383  0.00  0.00    +0.036 HD
ATOM     29  H   UNL     1     141.984 169.272 188.870  0.00  0.00    +0.060 HD
ATOM     30  H   UNL     1     141.051 168.881 186.214  0.00  0.00    +0.032 HD
ATOM     31  H   UNL     1     142.321 170.050 186.028  0.00  0.00    +0.032 HD
ATOM     32  H   UNL     1     140.357 171.325 186.330  0.00  0.00    +0.063 HD
ATOM     33  H   UNL     1     138.945 168.667 186.502  0.00  0.00    +0.059 HD
ATOM     34  H   UNL     1     137.548 169.152 187.539  0.00  0.00    +0.059 HD
ATOM     35  H   UNL     1     139.269 172.263 188.975  0.00  0.00    +0.063 HD
ATOM     36  H   UNL     1     138.749 170.703 190.674  0.00  0.00    +0.032 HD
ATOM     37  H   UNL     1     137.449 169.948 189.774  0.00  0.00    +0.032 HD
ATOM     38  H   UNL     1     136.813 171.405 191.677  0.00  0.00    +0.060 HD
ATOM     39  H   UNL     1     135.130 170.717 190.061  0.00  0.00    +0.033 HD
ATOM     40  H   UNL     1     135.541 172.028 188.948  0.00  0.00    +0.033 HD
ATOM     41  H   UNL     1     133.507 172.517 190.579  0.00  0.00    +0.057 HD
ATOM     42  H   UNL     1     134.349 174.351 191.937  0.00  0.00    +0.059 HD
ATOM     43  H   UNL     1     136.659 175.018 191.243  0.00  0.00    +0.064 HD
ATOM     44  H   UNL     1     136.168 174.184 193.732  0.00  0.00    +0.032 HD
ATOM     45  H   UNL     1     137.218 172.838 193.286  0.00  0.00    +0.032 HD
ATOM     46  H   UNL     1     138.715 175.004 192.364  0.00  0.00    +0.063 HD
ATOM     47  H   UNL     1     138.655 173.743 195.169  0.00  0.00    +0.066 HD
ATOM     48  H   UNL     1     139.799 172.032 194.165  0.00  0.00    +0.060 HD
ATOM     49  H   UNL     1     141.321 170.911 192.837  0.00  0.00    +0.062 HD
ATOM     50  H   UNL     1     142.825 172.568 190.724  0.00  0.00    +0.069 HD
ENDROOT
BRANCH  21  51
ATOM     51  C   UNL     1     141.336 174.330 192.026  0.00  0.00    -0.040 C 
ATOM     52  H   UNL     1     142.379 174.274 191.696  0.00  0.00    +0.028 HD
ATOM     53  H   UNL     1     141.227 175.193 192.688  0.00  0.00    +0.028 HD
ATOM     54  H   UNL     1     140.728 174.557 191.149  0.00  0.00    +0.028 HD
ENDBRANCH  21  51
BRANCH   2  55
ATOM     55  C   UNL     1     144.719 168.376 186.955  0.00  0.00    -0.057 C 
ATOM     56  H   UNL     1     145.672 168.808 186.633  0.00  0.00    +0.023 HD
ATOM     57  H   UNL     1     144.960 167.450 187.483  0.00  0.00    +0.023 HD
ATOM     58  H   UNL     1     144.142 168.109 186.062  0.00  0.00    +0.023 HD
ENDBRANCH   2  55
BRANCH   1  59
ATOM     59  C   UNL     1     146.099 169.753 189.301  0.00  0.00    +0.020 C 
ATOM     60  H   UNL     1     146.515 169.301 188.393  0.00  0.00    +0.036 HD
BRANCH  59  61
ATOM     61  C   UNL     1     146.461 171.239 189.238  0.00  0.00    -0.057 C 
ATOM     62  H   UNL     1     146.498 171.597 188.204  0.00  0.00    +0.023 HD
ATOM     63  H   UNL     1     145.716 171.854 189.749  0.00  0.00    +0.023 HD
ATOM     64  H   UNL     1     147.419 171.440 189.720  0.00  0.00    +0.023 HD
ENDBRANCH  59  61
BRANCH  59  65
ATOM     65  C   UNL     1     146.779 169.008 190.492  0.00  0.00    +0.064 C 
ATOM     66  H   UNL     1     147.271 169.776 191.104  0.00  0.00    +0.060 HD
BRANCH  65  67
ATOM     67  C   UNL     1     147.823 167.890 190.180  0.00  0.00    -0.017 C 
ATOM     68  H   UNL     1     147.394 166.921 190.439  0.00  0.00    +0.032 HD
BRANCH  67  69
ATOM     69  C   UNL     1     148.052 167.875 188.657  0.00  0.00    -0.060 C 
ATOM     70  H   UNL     1     148.165 166.856 188.279  0.00  0.00    +0.023 HD
ATOM     71  H   UNL     1     148.952 168.439 188.379  0.00  0.00    +0.023 HD
ATOM     72  H   UNL     1     147.198 168.322 188.133  0.00  0.00    +0.023 HD
ENDBRANCH  67  69
BRANCH  67  73
ATOM     73  C   UNL     1     149.197 168.053 190.883  0.00  0.00    -0.046 C 
ATOM     74  H   UNL     1     149.663 168.997 190.592  0.00  0.00    +0.027 HD
ATOM     75  H   UNL     1     149.898 167.272 190.562  0.00  0.00    +0.027 HD
BRANCH  73  76
ATOM     76  C   UNL     1     149.137 168.048 192.423  0.00  0.00    -0.026 C 
ATOM     77  H   UNL     1     150.168 167.972 192.794  0.00  0.00    +0.029 HD
ATOM     78  H   UNL     1     148.744 169.007 192.775  0.00  0.00    +0.029 HD
BRANCH  76  83
ATOM     79  C   UNL     1     146.283 166.490 194.280  0.00  0.00    +0.059 C 
ATOM     80  C   UNL     1     147.049 165.561 195.222  0.00  0.00    -0.000 C 
ATOM     81  C   UNL     1     148.468 166.057 195.455  0.00  0.00    +0.063 C 
ATOM     82  C   UNL     1     149.175 166.180 194.109  0.00  0.00    -0.000 C 
ATOM     83  C   UNL     1     148.319 166.910 193.061  0.00  0.00    +0.061 C 
ATOM     84  O   UNL     1     147.143 167.453 193.659  0.00  0.00    -0.373 OA
ATOM     85  H   UNL     1     145.576 167.079 194.879  0.00  0.00    +0.059 HD
ATOM     86  H   UNL     1     146.513 165.474 196.178  0.00  0.00    +0.032 HD
ATOM     87  H   UNL     1     147.077 164.532 194.831  0.00  0.00    +0.032 HD
ATOM     88  H   UNL     1     148.431 167.033 195.954  0.00  0.00    +0.060 HD
ATOM     89  H   UNL     1     150.143 166.678 194.249  0.00  0.00    +0.032 HD
ATOM     90  H   UNL     1     149.438 165.185 193.726  0.00  0.00    +0.032 HD
ATOM     91  H   UNL     1     148.031 166.213 192.266  0.00  0.00    +0.060 HD
BRANCH  79  92
ATOM     92  C   UNL     1     145.460 165.718 193.253  0.00  0.00    -0.039 C 
ATOM     93  H   UNL     1     146.046 164.926 192.777  0.00  0.00    +0.025 HD
ATOM     94  H   UNL     1     144.589 165.256 193.727  0.00  0.00    +0.025 HD
ATOM     95  H   UNL     1     145.115 166.384 192.456  0.00  0.00    +0.025 HD
ENDBRANCH  79  92
BRANCH  81  96
ATOM     96  O   UNL     1     149.128 165.116 196.310  0.00  0.00    -0.380 OA
BRANCH  96  97
ATOM     97  C   UNL     1     150.548 165.203 196.253  0.00  0.00    +0.037 C 
ATOM     98  H   UNL     1     150.869 165.733 195.351  0.00  0.00    +0.052 HD
ATOM     99  H   UNL     1     150.889 165.765 197.126  0.00  0.00    +0.052 HD
ATOM    100  H   UNL     1     151.000 164.207 196.290  0.00  0.00    +0.052 HD
ENDBRANCH  96  97
ENDBRANCH  81  96
ENDBRANCH  76  83
ENDBRANCH  73  76
ENDBRANCH  67  73
ENDBRANCH  65  67
BRANCH  65 101
ATOM    101  O   UNL     1     145.754 168.454 191.332  0.00  0.00    -0.391 OA
ATOM    102  H   UNL     1     144.935 168.423 190.809  0.00  0.00    +0.210 HD
ENDBRANCH  65 101
ENDBRANCH  59  65
ENDBRANCH   1  59
BRANCH  19 103
ATOM    103  O   UNL     1     140.105 175.104 194.817  0.00  0.00    -0.385 OA
ATOM    104  H   UNL     1     139.551 175.661 195.396  0.00  0.00    +0.210 HD
ENDBRANCH  19 103
BRANCH  18 105
ATOM    105  O   UNL     1     137.733 176.004 193.914  0.00  0.00    -0.377 OA
BRANCH 105 106
ATOM    106  C   UNL     1     137.868 177.127 193.048  0.00  0.00    +0.037 C 
ATOM    107  H   UNL     1     138.445 177.921 193.534  0.00  0.00    +0.052 HD
ATOM    108  H   UNL     1     136.868 177.510 192.827  0.00  0.00    +0.052 HD
ATOM    109  H   UNL     1     138.345 176.831 192.108  0.00  0.00    +0.052 HD
ENDBRANCH 105 106
ENDBRANCH  18 105
BRANCH   9 110
ATOM    110  O   UNL     1     137.615 171.908 187.754  0.00  0.00    -0.377 OA
BRANCH 110 111
ATOM    111  C   UNL     1     137.906 173.205 187.254  0.00  0.00    +0.037 C 
ATOM    112  H   UNL     1     138.971 173.400 187.403  0.00  0.00    +0.052 HD
ATOM    113  H   UNL     1     137.333 173.961 187.799  0.00  0.00    +0.052 HD
ATOM    114  H   UNL     1     137.690 173.268 186.184  0.00  0.00    +0.052 HD
ENDBRANCH 110 111
ENDBRANCH   9 110
BRANCH   5 115
ATOM    115  O   UNL     1     141.431 171.681 188.071  0.00  0.00    -0.377 OA
BRANCH 115 116
ATOM    116  C   UNL     1     142.103 172.705 187.351  0.00  0.00    +0.037 C 
ATOM    117  H   UNL     1     141.480 173.603 187.296  0.00  0.00    +0.052 HD
ATOM    118  H   UNL     1     142.371 172.371 186.345  0.00  0.00    +0.052 HD
ATOM    119  H   UNL     1     143.019 172.955 187.892  0.00  0.00    +0.052 HD
ENDBRANCH 115 116
ENDBRANCH   5 115
BRANCH   3 120
ATOM    120  O   UNL     1     142.276 167.550 187.746  0.00  0.00    -0.379 OA
BRANCH 120 121
ATOM    121  C   UNL     1     142.061 166.857 188.969  0.00  0.00    +0.037 C 
ATOM    122  H   UNL     1     141.615 167.516 189.717  0.00  0.00    +0.052 HD
ATOM    123  H   UNL     1     141.432 165.976 188.813  0.00  0.00    +0.052 HD
ATOM    124  H   UNL     1     143.031 166.520 189.345  0.00  0.00    +0.052 HD
ENDBRANCH 120 121
ENDBRANCH   3 120
TORSDOF 23
ENDMDL
MODEL 8
REMARK VINA RESULT:      -5.1      2.484      4.396
REMARK  Name = Lobophorolide_conf2
REMARK  23 active torsions:
REMARK  status: ('A' for Active; 'I' for Inactive)
REMARK    1  A    between atoms: C_1  and  C_2
REMARK    2  A    between atoms: C_4  and  O_53
REMARK    3  A    between atoms: C_6  and  C_8
REMARK    4  A    between atoms: C_8  and  C_9
REMARK    5  A    between atoms: C_9  and  C_10
REMARK    6  A    between atoms: C_10  and  C_11
REMARK    7  A    between atoms: C_10  and  C_12
REMARK    8  A    between atoms: C_12  and  C_13
REMARK    9  A    between atoms: C_12  and  O_52
REMARK   10  A    between atoms: C_13  and  C_14
REMARK   11  A    between atoms: C_13  and  C_15
REMARK   12  A    between atoms: C_16  and  C_51
REMARK   13  A    between atoms: C_17  and  O_49
REMARK   14  A    between atoms: C_19  and  O_47
REMARK   15  A    between atoms: C_23  and  O_45
REMARK   16  A    between atoms: C_32  and  O_43
REMARK   17  A    between atoms: C_33  and  O_42
REMARK   18  A    between atoms: C_35  and  C_41
REMARK   19  A    between atoms: O_43  and  C_44
REMARK   20  A    between atoms: O_45  and  C_46
REMARK   21  A    between atoms: O_47  and  C_48
REMARK   22  A    between atoms: O_49  and  C_50
REMARK   23  A    between atoms: O_53  and  C_54
REMARK                            x       y       z     vdW  Elec       q    Type
REMARK                         _______ _______ _______ _____ _____    ______ ____
ROOT
ATOM      1  C   UNL     1     146.581 167.070 188.786  0.00  0.00    +0.113 C 
ATOM      2  C   UNL     1     145.241 166.570 189.406  0.00  0.00    +0.020 C 
ATOM      3  C   UNL     1     144.591 167.662 190.323  0.00  0.00    +0.067 C 
ATOM      4  C   UNL     1     143.044 167.631 190.234  0.00  0.00    +0.003 C 
ATOM      5  C   UNL     1     142.434 168.831 189.466  0.00  0.00    +0.094 C 
ATOM      6  C   UNL     1     142.419 170.160 190.218  0.00  0.00    +0.145 C 
ATOM      7  C   UNL     1     142.024 170.167 191.694  0.00  0.00    +0.083 C 
ATOM      8  O   UNL     1     143.386 170.299 191.273  0.00  0.00    -0.363 OA
ATOM      9  C   UNL     1     142.100 171.429 189.418  0.00  0.00    +0.094 C 
ATOM     10  C   UNL     1     142.878 172.659 189.931  0.00  0.00    +0.003 C 
ATOM     11  C   UNL     1     142.482 174.043 189.392  0.00  0.00    +0.065 C 
ATOM     12  C   UNL     1     141.247 174.627 190.098  0.00  0.00    -0.008 C 
ATOM     13  C   UNL     1     140.883 175.947 189.493  0.00  0.00    -0.083 C 
ATOM     14  C   UNL     1     141.315 176.269 188.268  0.00  0.00    -0.059 C 
ATOM     15  C   UNL     1     142.135 175.344 187.399  0.00  0.00    +0.080 C 
ATOM     16  O   UNL     1     142.291 174.027 187.969  0.00  0.00    -0.369 OA
ATOM     17  C   UNL     1     143.515 175.934 187.066  0.00  0.00    +0.006 C 
ATOM     18  C   UNL     1     144.049 175.358 185.742  0.00  0.00    +0.090 C 
ATOM     19  C   UNL     1     145.583 175.144 185.778  0.00  0.00    +0.100 C 
ATOM     20  C   UNL     1     146.026 173.955 186.589  0.00  0.00    -0.051 C 
ATOM     21  C   UNL     1     145.786 172.646 186.358  0.00  0.00    -0.052 C 
ATOM     22  C   UNL     1     146.305 171.653 187.301  0.00  0.00    -0.052 C 
ATOM     23  C   UNL     1     146.113 170.329 187.214  0.00  0.00    +0.023 C 
ATOM     24  C   UNL     1     146.673 169.404 188.219  0.00  0.00    +0.332 C 
ATOM     25  O   UNL     1     147.381 169.714 189.161  0.00  0.00    -0.246 OA
ATOM     26  O   UNL     1     146.239 168.158 187.900  0.00  0.00    -0.458 OA
ATOM     27  H   UNL     1     147.236 167.410 189.597  0.00  0.00    +0.074 HD
ATOM     28  H   UNL     1     144.559 166.410 188.562  0.00  0.00    +0.036 HD
ATOM     29  H   UNL     1     144.942 168.664 190.058  0.00  0.00    +0.060 HD
ATOM     30  H   UNL     1     142.604 167.553 191.231  0.00  0.00    +0.032 HD
ATOM     31  H   UNL     1     142.733 166.715 189.716  0.00  0.00    +0.032 HD
ATOM     32  H   UNL     1     141.382 168.597 189.260  0.00  0.00    +0.063 HD
ATOM     33  H   UNL     1     141.725 169.251 192.182  0.00  0.00    +0.059 HD
ATOM     34  H   UNL     1     141.531 171.046 192.097  0.00  0.00    +0.059 HD
ATOM     35  H   UNL     1     142.380 171.292 188.366  0.00  0.00    +0.063 HD
ATOM     36  H   UNL     1     143.935 172.487 189.685  0.00  0.00    +0.032 HD
ATOM     37  H   UNL     1     142.830 172.720 191.025  0.00  0.00    +0.032 HD
ATOM     38  H   UNL     1     143.334 174.696 189.616  0.00  0.00    +0.060 HD
ATOM     39  H   UNL     1     141.461 174.758 191.165  0.00  0.00    +0.033 HD
ATOM     40  H   UNL     1     140.372 173.977 190.012  0.00  0.00    +0.033 HD
ATOM     41  H   UNL     1     140.262 176.627 190.065  0.00  0.00    +0.057 HD
ATOM     42  H   UNL     1     141.044 177.232 187.842  0.00  0.00    +0.059 HD
ATOM     43  H   UNL     1     141.566 175.203 186.473  0.00  0.00    +0.064 HD
ATOM     44  H   UNL     1     143.449 177.027 186.985  0.00  0.00    +0.032 HD
ATOM     45  H   UNL     1     144.211 175.711 187.882  0.00  0.00    +0.032 HD
ATOM     46  H   UNL     1     143.546 174.414 185.503  0.00  0.00    +0.063 HD
ATOM     47  H   UNL     1     146.064 176.045 186.183  0.00  0.00    +0.066 HD
ATOM     48  H   UNL     1     146.603 174.230 187.470  0.00  0.00    +0.060 HD
ATOM     49  H   UNL     1     146.890 172.036 188.135  0.00  0.00    +0.062 HD
ATOM     50  H   UNL     1     145.539 169.865 186.423  0.00  0.00    +0.069 HD
ENDROOT
BRANCH  21  51
ATOM     51  C   UNL     1     145.009 172.136 185.168  0.00  0.00    -0.040 C 
ATOM     52  H   UNL     1     143.981 171.898 185.460  0.00  0.00    +0.028 HD
ATOM     53  H   UNL     1     145.471 171.237 184.753  0.00  0.00    +0.028 HD
ATOM     54  H   UNL     1     144.959 172.847 184.341  0.00  0.00    +0.028 HD
ENDBRANCH  21  51
BRANCH   2  55
ATOM     55  C   UNL     1     145.385 165.237 190.155  0.00  0.00    -0.057 C 
ATOM     56  H   UNL     1     144.813 164.446 189.659  0.00  0.00    +0.023 HD
ATOM     57  H   UNL     1     146.423 164.897 190.187  0.00  0.00    +0.023 HD
ATOM     58  H   UNL     1     145.030 165.323 191.189  0.00  0.00    +0.023 HD
ENDBRANCH   2  55
BRANCH   1  59
ATOM     59  C   UNL     1     147.371 166.002 187.969  0.00  0.00    +0.020 C 
ATOM     60  H   UNL     1     147.214 165.037 188.466  0.00  0.00    +0.036 HD
BRANCH  59  61
ATOM     61  C   UNL     1     146.836 165.836 186.545  0.00  0.00    -0.057 C 
ATOM     62  H   UNL     1     146.256 166.710 186.233  0.00  0.00    +0.023 HD
ATOM     63  H   UNL     1     147.649 165.733 185.822  0.00  0.00    +0.023 HD
ATOM     64  H   UNL     1     146.216 164.943 186.450  0.00  0.00    +0.023 HD
ENDBRANCH  59  61
BRANCH  59  65
ATOM     65  C   UNL     1     148.910 166.255 188.019  0.00  0.00    +0.064 C 
ATOM     66  H   UNL     1     149.359 165.616 187.247  0.00  0.00    +0.060 HD
BRANCH  65  67
ATOM     67  C   UNL     1     149.669 166.007 189.360  0.00  0.00    -0.017 C 
ATOM     68  H   UNL     1     149.128 165.258 189.941  0.00  0.00    +0.032 HD
BRANCH  67  69
ATOM     69  C   UNL     1     151.037 165.390 189.017  0.00  0.00    -0.060 C 
ATOM     70  H   UNL     1     151.201 165.352 187.937  0.00  0.00    +0.023 HD
ATOM     71  H   UNL     1     151.128 164.368 189.407  0.00  0.00    +0.023 HD
ATOM     72  H   UNL     1     151.850 165.989 189.447  0.00  0.00    +0.023 HD
ENDBRANCH  67  69
BRANCH  67  73
ATOM     73  C   UNL     1     149.901 167.270 190.232  0.00  0.00    -0.046 C 
ATOM     74  H   UNL     1     149.531 168.159 189.718  0.00  0.00    +0.027 HD
ATOM     75  H   UNL     1     150.973 167.449 190.387  0.00  0.00    +0.027 HD
BRANCH  73  76
ATOM     76  C   UNL     1     149.211 167.239 191.609  0.00  0.00    -0.026 C 
ATOM     77  H   UNL     1     148.712 168.206 191.752  0.00  0.00    +0.029 HD
ATOM     78  H   UNL     1     148.426 166.475 191.606  0.00  0.00    +0.029 HD
BRANCH  76  83
ATOM     79  C   UNL     1     152.007 165.667 193.542  0.00  0.00    +0.059 C 
ATOM     80  C   UNL     1     151.307 165.425 194.880  0.00  0.00    -0.000 C 
ATOM     81  C   UNL     1     149.800 165.320 194.705  0.00  0.00    +0.063 C 
ATOM     82  C   UNL     1     149.291 166.596 194.041  0.00  0.00    -0.000 C 
ATOM     83  C   UNL     1     150.133 166.998 192.819  0.00  0.00    +0.061 C 
ATOM     84  O   UNL     1     151.077 165.978 192.498  0.00  0.00    -0.373 OA
ATOM     85  H   UNL     1     152.486 164.730 193.231  0.00  0.00    +0.059 HD
ATOM     86  H   UNL     1     151.701 164.510 195.347  0.00  0.00    +0.032 HD
ATOM     87  H   UNL     1     151.541 166.222 195.602  0.00  0.00    +0.032 HD
ATOM     88  H   UNL     1     149.569 164.450 194.078  0.00  0.00    +0.060 HD
ATOM     89  H   UNL     1     148.234 166.472 193.772  0.00  0.00    +0.032 HD
ATOM     90  H   UNL     1     149.289 167.425 194.763  0.00  0.00    +0.032 HD
ATOM     91  H   UNL     1     150.668 167.932 193.028  0.00  0.00    +0.060 HD
BRANCH  79  92
ATOM     92  C   UNL     1     153.110 166.716 193.651  0.00  0.00    -0.039 C 
ATOM     93  H   UNL     1     153.540 166.747 194.656  0.00  0.00    +0.025 HD
ATOM     94  H   UNL     1     153.915 166.501 192.944  0.00  0.00    +0.025 HD
ATOM     95  H   UNL     1     152.713 167.715 193.441  0.00  0.00    +0.025 HD
ENDBRANCH  79  92
BRANCH  81  96
ATOM     96  O   UNL     1     149.218 165.135 196.000  0.00  0.00    -0.380 OA
BRANCH  96  97
ATOM     97  C   UNL     1     148.085 165.966 196.234  0.00  0.00    +0.037 C 
ATOM     98  H   UNL     1     147.673 166.334 195.289  0.00  0.00    +0.052 HD
ATOM     99  H   UNL     1     147.322 165.367 196.736  0.00  0.00    +0.052 HD
ATOM    100  H   UNL     1     148.346 166.804 196.886  0.00  0.00    +0.052 HD
ENDBRANCH  96  97
ENDBRANCH  81  96
ENDBRANCH  76  83
ENDBRANCH  73  76
ENDBRANCH  67  73
ENDBRANCH  65  67
BRANCH  65 101
ATOM    101  O   UNL     1     149.167 167.602 187.591  0.00  0.00    -0.391 OA
ATOM    102  H   UNL     1     149.414 167.567 186.651  0.00  0.00    +0.210 HD
ENDBRANCH  65 101
ENDBRANCH  59  65
ENDBRANCH   1  59
BRANCH  19 103
ATOM    103  O   UNL     1     146.098 175.002 184.453  0.00  0.00    -0.385 OA
ATOM    104  H   UNL     1     147.005 175.355 184.504  0.00  0.00    +0.210 HD
ENDBRANCH  19 103
BRANCH  18 105
ATOM    105  O   UNL     1     143.769 176.331 184.703  0.00  0.00    -0.377 OA
BRANCH 105 106
ATOM    106  C   UNL     1     143.929 177.674 185.154  0.00  0.00    +0.037 C 
ATOM    107  H   UNL     1     143.067 178.282 184.863  0.00  0.00    +0.052 HD
ATOM    108  H   UNL     1     144.822 178.089 184.679  0.00  0.00    +0.052 HD
ATOM    109  H   UNL     1     144.065 177.700 186.239  0.00  0.00    +0.052 HD
ENDBRANCH 105 106
ENDBRANCH  18 105
BRANCH   9 110
ATOM    110  O   UNL     1     140.688 171.651 189.534  0.00  0.00    -0.377 OA
BRANCH 110 111
ATOM    111  C   UNL     1     139.992 171.352 188.334  0.00  0.00    +0.037 C 
ATOM    112  H   UNL     1     139.743 170.288 188.335  0.00  0.00    +0.052 HD
ATOM    113  H   UNL     1     140.623 171.561 187.465  0.00  0.00    +0.052 HD
ATOM    114  H   UNL     1     139.062 171.923 188.269  0.00  0.00    +0.052 HD
ENDBRANCH 110 111
ENDBRANCH   9 110
BRANCH   5 115
ATOM    115  O   UNL     1     143.134 169.002 188.223  0.00  0.00    -0.377 OA
BRANCH 115 116
ATOM    116  C   UNL     1     142.574 168.250 187.155  0.00  0.00    +0.037 C 
ATOM    117  H   UNL     1     142.134 168.918 186.409  0.00  0.00    +0.052 HD
ATOM    118  H   UNL     1     141.822 167.544 187.520  0.00  0.00    +0.052 HD
ATOM    119  H   UNL     1     143.380 167.686 186.679  0.00  0.00    +0.052 HD
ENDBRANCH 115 116
ENDBRANCH   5 115
BRANCH   3 120
ATOM    120  O   UNL     1     144.921 167.397 191.702  0.00  0.00    -0.379 OA
BRANCH 120 121
ATOM    121  C   UNL     1     143.797 167.034 192.494  0.00  0.00    +0.037 C 
ATOM    122  H   UNL     1     143.310 167.919 192.908  0.00  0.00    +0.052 HD
ATOM    123  H   UNL     1     143.083 166.444 191.912  0.00  0.00    +0.052 HD
ATOM    124  H   UNL     1     144.150 166.417 193.325  0.00  0.00    +0.052 HD
ENDBRANCH 120 121
ENDBRANCH   3 120
TORSDOF 23
ENDMDL
MODEL 9
REMARK VINA RESULT:      -5.0      3.659     11.150
REMARK  Name = Lobophorolide_conf2
REMARK  23 active torsions:
REMARK  status: ('A' for Active; 'I' for Inactive)
REMARK    1  A    between atoms: C_1  and  C_2
REMARK    2  A    between atoms: C_4  and  O_53
REMARK    3  A    between atoms: C_6  and  C_8
REMARK    4  A    between atoms: C_8  and  C_9
REMARK    5  A    between atoms: C_9  and  C_10
REMARK    6  A    between atoms: C_10  and  C_11
REMARK    7  A    between atoms: C_10  and  C_12
REMARK    8  A    between atoms: C_12  and  C_13
REMARK    9  A    between atoms: C_12  and  O_52
REMARK   10  A    between atoms: C_13  and  C_14
REMARK   11  A    between atoms: C_13  and  C_15
REMARK   12  A    between atoms: C_16  and  C_51
REMARK   13  A    between atoms: C_17  and  O_49
REMARK   14  A    between atoms: C_19  and  O_47
REMARK   15  A    between atoms: C_23  and  O_45
REMARK   16  A    between atoms: C_32  and  O_43
REMARK   17  A    between atoms: C_33  and  O_42
REMARK   18  A    between atoms: C_35  and  C_41
REMARK   19  A    between atoms: O_43  and  C_44
REMARK   20  A    between atoms: O_45  and  C_46
REMARK   21  A    between atoms: O_47  and  C_48
REMARK   22  A    between atoms: O_49  and  C_50
REMARK   23  A    between atoms: O_53  and  C_54
REMARK                            x       y       z     vdW  Elec       q    Type
REMARK                         _______ _______ _______ _____ _____    ______ ____
ROOT
ATOM      1  C   UNL     1     143.500 168.363 189.917  0.00  0.00    +0.113 C 
ATOM      2  C   UNL     1     143.037 167.324 188.851  0.00  0.00    +0.020 C 
ATOM      3  C   UNL     1     144.021 167.275 187.632  0.00  0.00    +0.067 C 
ATOM      4  C   UNL     1     144.154 165.839 187.067  0.00  0.00    +0.003 C 
ATOM      5  C   UNL     1     145.517 165.167 187.371  0.00  0.00    +0.094 C 
ATOM      6  C   UNL     1     146.699 165.662 186.541  0.00  0.00    +0.145 C 
ATOM      7  C   UNL     1     146.502 165.900 185.045  0.00  0.00    +0.083 C 
ATOM      8  O   UNL     1     146.570 166.981 185.981  0.00  0.00    -0.363 OA
ATOM      9  C   UNL     1     148.108 165.252 186.989  0.00  0.00    +0.094 C 
ATOM     10  C   UNL     1     149.156 166.352 186.718  0.00  0.00    +0.003 C 
ATOM     11  C   UNL     1     150.641 165.993 186.886  0.00  0.00    +0.065 C 
ATOM     12  C   UNL     1     151.217 165.253 185.667  0.00  0.00    -0.008 C 
ATOM     13  C   UNL     1     152.648 164.888 185.915  0.00  0.00    -0.083 C 
ATOM     14  C   UNL     1     153.124 164.836 187.164  0.00  0.00    -0.059 C 
ATOM     15  C   UNL     1     152.279 165.083 188.393  0.00  0.00    +0.080 C 
ATOM     16  O   UNL     1     150.878 165.247 188.090  0.00  0.00    -0.369 OA
ATOM     17  C   UNL     1     152.781 166.287 189.207  0.00  0.00    +0.006 C 
ATOM     18  C   UNL     1     152.381 166.148 190.688  0.00  0.00    +0.090 C 
ATOM     19  C   UNL     1     152.017 167.514 191.323  0.00  0.00    +0.100 C 
ATOM     20  C   UNL     1     150.674 168.053 190.909  0.00  0.00    -0.051 C 
ATOM     21  C   UNL     1     149.451 167.540 191.160  0.00  0.00    -0.052 C 
ATOM     22  C   UNL     1     148.270 168.232 190.637  0.00  0.00    -0.052 C 
ATOM     23  C   UNL     1     147.004 167.817 190.780  0.00  0.00    +0.023 C 
ATOM     24  C   UNL     1     145.877 168.582 190.211  0.00  0.00    +0.332 C 
ATOM     25  O   UNL     1     145.957 169.647 189.625  0.00  0.00    -0.246 OA
ATOM     26  O   UNL     1     144.748 167.867 190.453  0.00  0.00    -0.458 OA
ATOM     27  H   UNL     1     143.638 169.332 189.424  0.00  0.00    +0.074 HD
ATOM     28  H   UNL     1     143.085 166.345 189.343  0.00  0.00    +0.036 HD
ATOM     29  H   UNL     1     145.014 167.642 187.909  0.00  0.00    +0.060 HD
ATOM     30  H   UNL     1     143.956 165.830 185.992  0.00  0.00    +0.032 HD
ATOM     31  H   UNL     1     143.370 165.207 187.503  0.00  0.00    +0.032 HD
ATOM     32  H   UNL     1     145.423 164.098 187.141  0.00  0.00    +0.063 HD
ATOM     33  H   UNL     1     145.552 165.683 184.580  0.00  0.00    +0.059 HD
ATOM     34  H   UNL     1     147.346 165.754 184.378  0.00  0.00    +0.059 HD
ATOM     35  H   UNL     1     148.119 165.060 188.069  0.00  0.00    +0.063 HD
ATOM     36  H   UNL     1     148.926 167.180 187.402  0.00  0.00    +0.032 HD
ATOM     37  H   UNL     1     149.040 166.757 185.706  0.00  0.00    +0.032 HD
ATOM     38  H   UNL     1     151.164 166.955 186.970  0.00  0.00    +0.060 HD
ATOM     39  H   UNL     1     151.150 165.896 184.781  0.00  0.00    +0.033 HD
ATOM     40  H   UNL     1     150.678 164.328 185.448  0.00  0.00    +0.033 HD
ATOM     41  H   UNL     1     153.281 164.663 185.064  0.00  0.00    +0.057 HD
ATOM     42  H   UNL     1     154.165 164.571 187.329  0.00  0.00    +0.059 HD
ATOM     43  H   UNL     1     152.349 164.176 189.004  0.00  0.00    +0.064 HD
ATOM     44  H   UNL     1     153.873 166.365 189.133  0.00  0.00    +0.032 HD
ATOM     45  H   UNL     1     152.360 167.207 188.789  0.00  0.00    +0.032 HD
ATOM     46  H   UNL     1     151.542 165.451 190.796  0.00  0.00    +0.063 HD
ATOM     47  H   UNL     1     152.789 168.250 191.061  0.00  0.00    +0.066 HD
ATOM     48  H   UNL     1     150.743 168.970 190.326  0.00  0.00    +0.060 HD
ATOM     49  H   UNL     1     148.453 169.155 190.088  0.00  0.00    +0.062 HD
ATOM     50  H   UNL     1     146.733 166.910 191.303  0.00  0.00    +0.069 HD
ENDROOT
BRANCH  21  51
ATOM     51  C   UNL     1     149.221 166.281 191.961  0.00  0.00    -0.040 C 
ATOM     52  H   UNL     1     149.484 166.446 193.011  0.00  0.00    +0.028 HD
ATOM     53  H   UNL     1     149.822 165.454 191.576  0.00  0.00    +0.028 HD
ATOM     54  H   UNL     1     148.188 165.928 191.935  0.00  0.00    +0.028 HD
ENDBRANCH  21  51
BRANCH   2  55
ATOM     55  C   UNL     1     141.591 167.547 188.383  0.00  0.00    -0.057 C 
ATOM     56  H   UNL     1     141.215 168.517 188.724  0.00  0.00    +0.023 HD
ATOM     57  H   UNL     1     141.511 167.548 187.294  0.00  0.00    +0.023 HD
ATOM     58  H   UNL     1     140.926 166.765 188.766  0.00  0.00    +0.023 HD
ENDBRANCH   2  55
BRANCH   1  59
ATOM     59  C   UNL     1     142.510 168.581 191.102  0.00  0.00    +0.020 C 
ATOM     60  H   UNL     1     141.531 168.214 190.774  0.00  0.00    +0.036 HD
BRANCH  59  61
ATOM     61  C   UNL     1     142.878 167.755 192.337  0.00  0.00    -0.057 C 
ATOM     62  H   UNL     1     142.324 166.812 192.366  0.00  0.00    +0.023 HD
ATOM     63  H   UNL     1     143.938 167.489 192.338  0.00  0.00    +0.023 HD
ATOM     64  H   UNL     1     142.693 168.307 193.260  0.00  0.00    +0.023 HD
ENDBRANCH  59  61
BRANCH  59  65
ATOM     65  C   UNL     1     142.308 170.096 191.418  0.00  0.00    +0.064 C 
ATOM     66  H   UNL     1     142.042 170.163 192.481  0.00  0.00    +0.060 HD
BRANCH  65  67
ATOM     67  C   UNL     1     141.251 170.899 190.598  0.00  0.00    -0.017 C 
ATOM     68  H   UNL     1     141.453 170.769 189.533  0.00  0.00    +0.032 HD
BRANCH  67  69
ATOM     69  C   UNL     1     139.873 170.265 190.863  0.00  0.00    -0.060 C 
ATOM     70  H   UNL     1     139.600 169.555 190.078  0.00  0.00    +0.023 HD
ATOM     71  H   UNL     1     139.083 171.026 190.917  0.00  0.00    +0.023 HD
ATOM     72  H   UNL     1     139.876 169.714 191.811  0.00  0.00    +0.023 HD
ENDBRANCH  67  69
BRANCH  67  73
ATOM     73  C   UNL     1     141.169 172.413 190.928  0.00  0.00    -0.046 C 
ATOM     74  H   UNL     1     140.370 172.884 190.350  0.00  0.00    +0.027 HD
ATOM     75  H   UNL     1     142.088 172.932 190.628  0.00  0.00    +0.027 HD
BRANCH  73  76
ATOM     76  C   UNL     1     140.890 172.737 192.408  0.00  0.00    -0.026 C 
ATOM     77  H   UNL     1     139.828 172.531 192.599  0.00  0.00    +0.029 HD
ATOM     78  H   UNL     1     141.464 172.055 193.044  0.00  0.00    +0.029 HD
BRANCH  76  83
ATOM     79  C   UNL     1     142.986 175.674 193.411  0.00  0.00    +0.059 C 
ATOM     80  C   UNL     1     142.182 176.183 194.607  0.00  0.00    -0.000 C 
ATOM     81  C   UNL     1     141.348 175.072 195.227  0.00  0.00    +0.063 C 
ATOM     82  C   UNL     1     140.431 174.488 194.157  0.00  0.00    -0.000 C 
ATOM     83  C   UNL     1     141.177 174.185 192.847  0.00  0.00    +0.061 C 
ATOM     84  O   UNL     1     142.583 174.357 193.014  0.00  0.00    -0.373 OA
ATOM     85  H   UNL     1     144.035 175.573 193.720  0.00  0.00    +0.059 HD
ATOM     86  H   UNL     1     142.861 176.614 195.357  0.00  0.00    +0.032 HD
ATOM     87  H   UNL     1     141.527 177.020 194.320  0.00  0.00    +0.032 HD
ATOM     88  H   UNL     1     142.017 174.295 195.618  0.00  0.00    +0.060 HD
ATOM     89  H   UNL     1     139.937 173.590 194.549  0.00  0.00    +0.032 HD
ATOM     90  H   UNL     1     139.604 175.180 193.946  0.00  0.00    +0.032 HD
ATOM     91  H   UNL     1     140.823 174.855 192.055  0.00  0.00    +0.060 HD
BRANCH  79  92
ATOM     92  C   UNL     1     142.959 176.653 192.240  0.00  0.00    -0.039 C 
ATOM     93  H   UNL     1     143.662 177.478 192.387  0.00  0.00    +0.025 HD
ATOM     94  H   UNL     1     143.224 176.145 191.309  0.00  0.00    +0.025 HD
ATOM     95  H   UNL     1     141.964 177.095 192.130  0.00  0.00    +0.025 HD
ENDBRANCH  79  92
BRANCH  81  96
ATOM     96  O   UNL     1     140.598 175.636 196.309  0.00  0.00    -0.380 OA
BRANCH  96  97
ATOM     97  C   UNL     1     139.511 176.449 195.878  0.00  0.00    +0.037 C 
ATOM     98  H   UNL     1     139.021 176.925 196.733  0.00  0.00    +0.052 HD
ATOM     99  H   UNL     1     139.910 177.231 195.227  0.00  0.00    +0.052 HD
ATOM    100  H   UNL     1     138.790 175.860 195.305  0.00  0.00    +0.052 HD
ENDBRANCH  96  97
ENDBRANCH  81  96
ENDBRANCH  76  83
ENDBRANCH  73  76
ENDBRANCH  67  73
ENDBRANCH  65  67
BRANCH  65 101
ATOM    101  O   UNL     1     143.576 170.761 191.303  0.00  0.00    -0.391 OA
ATOM    102  H   UNL     1     144.242 170.084 191.095  0.00  0.00    +0.210 HD
ENDBRANCH  65 101
ENDBRANCH  59  65
ENDBRANCH   1  59
BRANCH  19 103
ATOM    103  O   UNL     1     152.046 167.423 192.748  0.00  0.00    -0.385 OA
ATOM    104  H   UNL     1     151.107 167.424 193.011  0.00  0.00    +0.210 HD
ENDBRANCH  19 103
BRANCH  18 105
ATOM    105  O   UNL     1     153.535 165.629 191.399  0.00  0.00    -0.377 OA
BRANCH 105 106
ATOM    106  C   UNL     1     154.767 165.997 190.785  0.00  0.00    +0.037 C 
ATOM    107  H   UNL     1     155.535 166.180 191.544  0.00  0.00    +0.052 HD
ATOM    108  H   UNL     1     154.606 166.921 190.224  0.00  0.00    +0.052 HD
ATOM    109  H   UNL     1     155.096 165.218 190.091  0.00  0.00    +0.052 HD
ENDBRANCH 105 106
ENDBRANCH  18 105
BRANCH   9 110
ATOM    110  O   UNL     1     148.443 164.059 186.267  0.00  0.00    -0.377 OA
BRANCH 110 111
ATOM    111  C   UNL     1     148.425 162.903 187.092  0.00  0.00    +0.037 C 
ATOM    112  H   UNL     1     147.676 162.211 186.699  0.00  0.00    +0.052 HD
ATOM    113  H   UNL     1     148.149 163.170 188.116  0.00  0.00    +0.052 HD
ATOM    114  H   UNL     1     149.396 162.402 187.083  0.00  0.00    +0.052 HD
ENDBRANCH 110 111
ENDBRANCH   9 110
BRANCH   5 115
ATOM    115  O   UNL     1     145.822 165.327 188.766  0.00  0.00    -0.377 OA
BRANCH 115 116
ATOM    116  C   UNL     1     145.322 164.270 189.574  0.00  0.00    +0.037 C 
ATOM    117  H   UNL     1     144.506 164.630 190.208  0.00  0.00    +0.052 HD
ATOM    118  H   UNL     1     146.114 163.836 190.191  0.00  0.00    +0.052 HD
ATOM    119  H   UNL     1     144.929 163.495 188.913  0.00  0.00    +0.052 HD
ENDBRANCH 115 116
ENDBRANCH   5 115
BRANCH   3 120
ATOM    120  O   UNL     1     143.502 168.086 186.557  0.00  0.00    -0.379 OA
BRANCH 120 121
ATOM    121  C   UNL     1     144.159 169.341 186.428  0.00  0.00    +0.037 C 
ATOM    122  H   UNL     1     144.899 169.477 187.218  0.00  0.00    +0.052 HD
ATOM    123  H   UNL     1     144.629 169.436 185.445  0.00  0.00    +0.052 HD
ATOM    124  H   UNL     1     143.408 170.131 186.523  0.00  0.00    +0.052 HD
ENDBRANCH 120 121
ENDBRANCH   3 120
TORSDOF 23
ENDMDL
MODEL 10
REMARK VINA RESULT:      -5.0      3.230      9.535
REMARK  Name = Lobophorolide_conf2
REMARK  23 active torsions:
REMARK  status: ('A' for Active; 'I' for Inactive)
REMARK    1  A    between atoms: C_1  and  C_2
REMARK    2  A    between atoms: C_4  and  O_53
REMARK    3  A    between atoms: C_6  and  C_8
REMARK    4  A    between atoms: C_8  and  C_9
REMARK    5  A    between atoms: C_9  and  C_10
REMARK    6  A    between atoms: C_10  and  C_11
REMARK    7  A    between atoms: C_10  and  C_12
REMARK    8  A    between atoms: C_12  and  C_13
REMARK    9  A    between atoms: C_12  and  O_52
REMARK   10  A    between atoms: C_13  and  C_14
REMARK   11  A    between atoms: C_13  and  C_15
REMARK   12  A    between atoms: C_16  and  C_51
REMARK   13  A    between atoms: C_17  and  O_49
REMARK   14  A    between atoms: C_19  and  O_47
REMARK   15  A    between atoms: C_23  and  O_45
REMARK   16  A    between atoms: C_32  and  O_43
REMARK   17  A    between atoms: C_33  and  O_42
REMARK   18  A    between atoms: C_35  and  C_41
REMARK   19  A    between atoms: O_43  and  C_44
REMARK   20  A    between atoms: O_45  and  C_46
REMARK   21  A    between atoms: O_47  and  C_48
REMARK   22  A    between atoms: O_49  and  C_50
REMARK   23  A    between atoms: O_53  and  C_54
REMARK                            x       y       z     vdW  Elec       q    Type
REMARK                         _______ _______ _______ _____ _____    ______ ____
ROOT
ATOM      1  C   UNL     1     144.822 165.821 190.766  0.00  0.00    +0.113 C 
ATOM      2  C   UNL     1     145.176 166.689 192.011  0.00  0.00    +0.020 C 
ATOM      3  C   UNL     1     146.519 166.226 192.671  0.00  0.00    +0.067 C 
ATOM      4  C   UNL     1     147.317 167.427 193.240  0.00  0.00    +0.003 C 
ATOM      5  C   UNL     1     148.585 167.783 192.425  0.00  0.00    +0.094 C 
ATOM      6  C   UNL     1     149.773 166.840 192.603  0.00  0.00    +0.145 C 
ATOM      7  C   UNL     1     150.117 166.344 194.007  0.00  0.00    +0.083 C 
ATOM      8  O   UNL     1     149.461 165.508 193.048  0.00  0.00    -0.363 OA
ATOM      9  C   UNL     1     150.941 166.969 191.618  0.00  0.00    +0.094 C 
ATOM     10  C   UNL     1     151.599 165.609 191.304  0.00  0.00    +0.003 C 
ATOM     11  C   UNL     1     152.927 165.610 190.530  0.00  0.00    +0.065 C 
ATOM     12  C   UNL     1     154.141 165.901 191.428  0.00  0.00    -0.008 C 
ATOM     13  C   UNL     1     155.393 165.939 190.608  0.00  0.00    -0.083 C 
ATOM     14  C   UNL     1     155.326 166.136 189.286  0.00  0.00    -0.059 C 
ATOM     15  C   UNL     1     154.035 166.379 188.539  0.00  0.00    +0.080 C 
ATOM     16  O   UNL     1     152.895 166.512 189.414  0.00  0.00    -0.369 OA
ATOM     17  C   UNL     1     153.762 165.292 187.487  0.00  0.00    +0.006 C 
ATOM     18  C   UNL     1     152.878 165.841 186.352  0.00  0.00    +0.090 C 
ATOM     19  C   UNL     1     151.878 164.780 185.829  0.00  0.00    +0.100 C 
ATOM     20  C   UNL     1     150.711 164.521 186.744  0.00  0.00    -0.051 C 
ATOM     21  C   UNL     1     149.722 165.367 187.103  0.00  0.00    -0.052 C 
ATOM     22  C   UNL     1     148.690 164.898 188.031  0.00  0.00    -0.052 C 
ATOM     23  C   UNL     1     147.675 165.639 188.497  0.00  0.00    +0.023 C 
ATOM     24  C   UNL     1     146.684 165.079 189.437  0.00  0.00    +0.332 C 
ATOM     25  O   UNL     1     146.644 163.928 189.834  0.00  0.00    -0.246 OA
ATOM     26  O   UNL     1     145.844 166.090 189.780  0.00  0.00    -0.458 OA
ATOM     27  H   UNL     1     144.826 164.766 191.063  0.00  0.00    +0.074 HD
ATOM     28  H   UNL     1     145.335 167.707 191.634  0.00  0.00    +0.036 HD
ATOM     29  H   UNL     1     147.149 165.689 191.955  0.00  0.00    +0.060 HD
ATOM     30  H   UNL     1     147.572 167.254 194.289  0.00  0.00    +0.032 HD
ATOM     31  H   UNL     1     146.670 168.314 193.250  0.00  0.00    +0.032 HD
ATOM     32  H   UNL     1     148.936 168.766 192.764  0.00  0.00    +0.063 HD
ATOM     33  H   UNL     1     149.551 166.688 194.860  0.00  0.00    +0.059 HD
ATOM     34  H   UNL     1     151.154 166.127 194.243  0.00  0.00    +0.059 HD
ATOM     35  H   UNL     1     150.586 167.379 190.664  0.00  0.00    +0.063 HD
ATOM     36  H   UNL     1     150.867 165.032 190.723  0.00  0.00    +0.032 HD
ATOM     37  H   UNL     1     151.769 165.039 192.225  0.00  0.00    +0.032 HD
ATOM     38  H   UNL     1     153.037 164.589 190.142  0.00  0.00    +0.060 HD
ATOM     39  H   UNL     1     154.227 165.122 192.195  0.00  0.00    +0.033 HD
ATOM     40  H   UNL     1     154.058 166.863 191.940  0.00  0.00    +0.033 HD
ATOM     41  H   UNL     1     156.346 165.809 191.108  0.00  0.00    +0.057 HD
ATOM     42  H   UNL     1     156.243 166.160 188.703  0.00  0.00    +0.059 HD
ATOM     43  H   UNL     1     154.144 167.350 188.040  0.00  0.00    +0.064 HD
ATOM     44  H   UNL     1     154.707 164.927 187.066  0.00  0.00    +0.032 HD
ATOM     45  H   UNL     1     153.270 164.439 187.967  0.00  0.00    +0.032 HD
ATOM     46  H   UNL     1     152.335 166.734 186.685  0.00  0.00    +0.063 HD
ATOM     47  H   UNL     1     152.410 163.835 185.659  0.00  0.00    +0.066 HD
ATOM     48  H   UNL     1     150.707 163.512 187.156  0.00  0.00    +0.060 HD
ATOM     49  H   UNL     1     148.769 163.864 188.362  0.00  0.00    +0.062 HD
ATOM     50  H   UNL     1     147.526 166.676 188.227  0.00  0.00    +0.069 HD
ENDROOT
BRANCH  21  51
ATOM     51  C   UNL     1     149.610 166.784 186.596  0.00  0.00    -0.040 C 
ATOM     52  H   UNL     1     148.708 166.900 185.986  0.00  0.00    +0.028 HD
ATOM     53  H   UNL     1     150.478 167.055 185.990  0.00  0.00    +0.028 HD
ATOM     54  H   UNL     1     149.565 167.531 187.391  0.00  0.00    +0.028 HD
ENDBRANCH  21  51
BRANCH   2  55
ATOM     55  C   UNL     1     144.043 166.742 193.048  0.00  0.00    -0.057 C 
ATOM     56  H   UNL     1     144.426 167.037 194.030  0.00  0.00    +0.023 HD
ATOM     57  H   UNL     1     143.278 167.475 192.780  0.00  0.00    +0.023 HD
ATOM     58  H   UNL     1     143.551 165.768 193.148  0.00  0.00    +0.023 HD
ENDBRANCH   2  55
BRANCH   1  59
ATOM     59  C   UNL     1     143.432 166.119 190.124  0.00  0.00    +0.020 C 
ATOM     60  H   UNL     1     142.846 166.669 190.870  0.00  0.00    +0.036 HD
BRANCH  59  61
ATOM     61  C   UNL     1     143.531 167.036 188.903  0.00  0.00    -0.057 C 
ATOM     62  H   UNL     1     143.917 166.499 188.031  0.00  0.00    +0.023 HD
ATOM     63  H   UNL     1     142.552 167.426 188.616  0.00  0.00    +0.023 HD
ATOM     64  H   UNL     1     144.167 167.901 189.101  0.00  0.00    +0.023 HD
ENDBRANCH  59  61
BRANCH  59  65
ATOM     65  C   UNL     1     142.631 164.810 189.842  0.00  0.00    +0.064 C 
ATOM     66  H   UNL     1     142.283 164.438 190.815  0.00  0.00    +0.060 HD
BRANCH  65  67
ATOM     67  C   UNL     1     143.346 163.638 189.099  0.00  0.00    -0.017 C 
ATOM     68  H   UNL     1     144.358 163.532 189.494  0.00  0.00    +0.032 HD
BRANCH  67  69
ATOM     69  C   UNL     1     142.600 162.337 189.449  0.00  0.00    -0.060 C 
ATOM     70  H   UNL     1     142.263 162.335 190.489  0.00  0.00    +0.023 HD
ATOM     71  H   UNL     1     143.237 161.455 189.301  0.00  0.00    +0.023 HD
ATOM     72  H   UNL     1     141.710 162.220 188.820  0.00  0.00    +0.023 HD
ENDBRANCH  67  69
BRANCH  67  73
ATOM     73  C   UNL     1     143.405 163.772 187.554  0.00  0.00    -0.046 C 
ATOM     74  H   UNL     1     143.304 164.819 187.260  0.00  0.00    +0.027 HD
ATOM     75  H   UNL     1     142.559 163.256 187.082  0.00  0.00    +0.027 HD
BRANCH  73  76
ATOM     76  C   UNL     1     144.707 163.258 186.911  0.00  0.00    -0.026 C 
ATOM     77  H   UNL     1     145.495 163.305 187.675  0.00  0.00    +0.029 HD
ATOM     78  H   UNL     1     144.589 162.203 186.643  0.00  0.00    +0.029 HD
BRANCH  76  83
ATOM     79  C   UNL     1     147.196 164.537 184.422  0.00  0.00    +0.059 C 
ATOM     80  C   UNL     1     146.758 165.999 184.330  0.00  0.00    -0.000 C 
ATOM     81  C   UNL     1     146.030 166.439 185.591  0.00  0.00    +0.063 C 
ATOM     82  C   UNL     1     144.833 165.520 185.815  0.00  0.00    -0.000 C 
ATOM     83  C   UNL     1     145.200 164.033 185.675  0.00  0.00    +0.061 C 
ATOM     84  O   UNL     1     146.612 163.871 185.548  0.00  0.00    -0.373 OA
ATOM     85  H   UNL     1     148.278 164.513 184.603  0.00  0.00    +0.059 HD
ATOM     86  H   UNL     1     147.634 166.640 184.153  0.00  0.00    +0.032 HD
ATOM     87  H   UNL     1     146.114 166.168 183.454  0.00  0.00    +0.032 HD
ATOM     88  H   UNL     1     146.717 166.379 186.444  0.00  0.00    +0.060 HD
ATOM     89  H   UNL     1     144.389 165.729 186.797  0.00  0.00    +0.032 HD
ATOM     90  H   UNL     1     144.032 165.759 185.102  0.00  0.00    +0.032 HD
ATOM     91  H   UNL     1     144.707 163.611 184.792  0.00  0.00    +0.060 HD
BRANCH  79  92
ATOM     92  C   UNL     1     146.945 163.779 183.121  0.00  0.00    -0.039 C 
ATOM     93  H   UNL     1     146.848 162.703 183.293  0.00  0.00    +0.025 HD
ATOM     94  H   UNL     1     146.027 164.130 182.643  0.00  0.00    +0.025 HD
ATOM     95  H   UNL     1     147.781 163.919 182.427  0.00  0.00    +0.025 HD
ENDBRANCH  79  92
BRANCH  81  96
ATOM     96  O   UNL     1     145.620 167.799 185.411  0.00  0.00    -0.380 OA
BRANCH  96  97
ATOM     97  C   UNL     1     146.014 168.653 186.481  0.00  0.00    +0.037 C 
ATOM     98  H   UNL     1     145.143 168.975 187.061  0.00  0.00    +0.052 HD
ATOM     99  H   UNL     1     146.679 168.088 187.138  0.00  0.00    +0.052 HD
ATOM    100  H   UNL     1     146.561 169.521 186.104  0.00  0.00    +0.052 HD
ENDBRANCH  96  97
ENDBRANCH  81  96
ENDBRANCH  76  83
ENDBRANCH  73  76
ENDBRANCH  67  73
ENDBRANCH  65  67
BRANCH  65 101
ATOM    101  O   UNL     1     141.438 165.149 189.118  0.00  0.00    -0.391 OA
ATOM    102  H   UNL     1     141.444 166.112 188.981  0.00  0.00    +0.210 HD
ENDBRANCH  65 101
ENDBRANCH  59  65
ENDBRANCH   1  59
BRANCH  19 103
ATOM    103  O   UNL     1     151.369 165.164 184.550  0.00  0.00    -0.385 OA
ATOM    104  H   UNL     1     152.143 165.123 183.958  0.00  0.00    +0.210 HD
ENDBRANCH  19 103
BRANCH  18 105
ATOM    105  O   UNL     1     153.757 166.193 185.253  0.00  0.00    -0.377 OA
BRANCH 105 106
ATOM    106  C   UNL     1     154.846 165.286 185.112  0.00  0.00    +0.037 C 
ATOM    107  H   UNL     1     155.780 165.751 185.445  0.00  0.00    +0.052 HD
ATOM    108  H   UNL     1     154.944 165.031 184.053  0.00  0.00    +0.052 HD
ATOM    109  H   UNL     1     154.656 164.367 185.676  0.00  0.00    +0.052 HD
ENDBRANCH 105 106
ENDBRANCH  18 105
BRANCH   9 110
ATOM    110  O   UNL     1     151.895 167.856 192.217  0.00  0.00    -0.377 OA
BRANCH 110 111
ATOM    111  C   UNL     1     151.710 169.204 191.814  0.00  0.00    +0.037 C 
ATOM    112  H   UNL     1     152.203 169.347 190.850  0.00  0.00    +0.052 HD
ATOM    113  H   UNL     1     152.162 169.885 192.541  0.00  0.00    +0.052 HD
ATOM    114  H   UNL     1     150.647 169.434 191.695  0.00  0.00    +0.052 HD
ENDBRANCH 110 111
ENDBRANCH   9 110
BRANCH   5 115
ATOM    115  O   UNL     1     148.247 167.855 191.031  0.00  0.00    -0.377 OA
BRANCH 115 116
ATOM    116  C   UNL     1     147.879 169.161 190.609  0.00  0.00    +0.037 C 
ATOM    117  H   UNL     1     148.077 169.887 191.403  0.00  0.00    +0.052 HD
ATOM    118  H   UNL     1     146.825 169.200 190.317  0.00  0.00    +0.052 HD
ATOM    119  H   UNL     1     148.491 169.422 189.743  0.00  0.00    +0.052 HD
ENDBRANCH 115 116
ENDBRANCH   5 115
BRANCH   3 120
ATOM    120  O   UNL     1     146.237 165.361 193.791  0.00  0.00    -0.379 OA
BRANCH 120 121
ATOM    121  C   UNL     1     146.771 165.835 195.021  0.00  0.00    +0.037 C 
ATOM    122  H   UNL     1     146.149 165.524 195.862  0.00  0.00    +0.052 HD
ATOM    123  H   UNL     1     147.799 165.488 195.159  0.00  0.00    +0.052 HD
ATOM    124  H   UNL     1     146.783 166.928 194.989  0.00  0.00    +0.052 HD
ENDBRANCH 120 121
ENDBRANCH   3 120
TORSDOF 23
ENDMDL
