MODEL 1
REMARK VINA RESULT:      -6.4      0.000      0.000
REMARK  Name = Lobophorolide_conf1
REMARK  23 active torsions:
REMARK  status: ('A' for Active; 'I' for Inactive)
REMARK    1  A    between atoms: C_1  and  C_2
REMARK    2  A    between atoms: C_4  and  O_53
REMARK    3  A    between atoms: C_6  and  C_8
REMARK    4  A    between atoms: C_8  and  C_9
REMARK    5  A    between atoms: C_9  and  C_10
REMARK    6  A    between atoms: C_10  and  C_11
REMARK    7  A    between atoms: C_10  and  C_12
REMARK    8  A    between atoms: C_12  and  C_13
REMARK    9  A    between atoms: C_12  and  O_52
REMARK   10  A    between atoms: C_13  and  C_14
REMARK   11  A    between atoms: C_13  and  C_15
REMARK   12  A    between atoms: C_16  and  C_51
REMARK   13  A    between atoms: C_17  and  O_49
REMARK   14  A    between atoms: C_19  and  O_47
REMARK   15  A    between atoms: C_23  and  O_45
REMARK   16  A    between atoms: C_32  and  O_43
REMARK   17  A    between atoms: C_33  and  O_42
REMARK   18  A    between atoms: C_35  and  C_41
REMARK   19  A    between atoms: O_43  and  C_44
REMARK   20  A    between atoms: O_45  and  C_46
REMARK   21  A    between atoms: O_47  and  C_48
REMARK   22  A    between atoms: O_49  and  C_50
REMARK   23  A    between atoms: O_53  and  C_54
REMARK                            x       y       z     vdW  Elec       q    Type
REMARK                         _______ _______ _______ _____ _____    ______ ____
ROOT
ATOM      1  C   UNL     1     152.500 165.533 189.396  0.00  0.00    +0.113 C 
ATOM      2  C   UNL     1     151.349 164.685 188.767  0.00  0.00    +0.020 C 
ATOM      3  C   UNL     1     151.806 164.015 187.415  0.00  0.00    +0.067 C 
ATOM      4  C   UNL     1     150.704 163.103 186.841  0.00  0.00    +0.003 C 
ATOM      5  C   UNL     1     151.191 162.064 185.821  0.00  0.00    +0.094 C 
ATOM      6  C   UNL     1     152.004 160.881 186.362  0.00  0.00    +0.145 C 
ATOM      7  C   UNL     1     152.715 160.077 185.280  0.00  0.00    +0.083 C 
ATOM      8  O   UNL     1     153.422 161.000 186.114  0.00  0.00    -0.363 OA
ATOM      9  C   UNL     1     151.686 160.283 187.739  0.00  0.00    +0.094 C 
ATOM     10  C   UNL     1     152.133 158.826 187.974  0.00  0.00    +0.003 C 
ATOM     11  C   UNL     1     153.631 158.529 188.139  0.00  0.00    +0.065 C 
ATOM     12  C   UNL     1     153.792 157.054 188.580  0.00  0.00    -0.008 C 
ATOM     13  C   UNL     1     155.135 156.764 189.168  0.00  0.00    -0.083 C 
ATOM     14  C   UNL     1     155.968 157.759 189.497  0.00  0.00    -0.059 C 
ATOM     15  C   UNL     1     155.637 159.215 189.296  0.00  0.00    +0.080 C 
ATOM     16  O   UNL     1     154.212 159.406 189.110  0.00  0.00    -0.369 OA
ATOM     17  C   UNL     1     156.425 159.841 188.133  0.00  0.00    +0.006 C 
ATOM     18  C   UNL     1     157.963 159.845 188.276  0.00  0.00    +0.090 C 
ATOM     19  C   UNL     1     158.526 160.650 189.486  0.00  0.00    +0.100 C 
ATOM     20  C   UNL     1     157.816 161.954 189.710  0.00  0.00    -0.051 C 
ATOM     21  C   UNL     1     158.083 163.149 189.149  0.00  0.00    -0.052 C 
ATOM     22  C   UNL     1     157.162 164.261 189.327  0.00  0.00    -0.052 C 
ATOM     23  C   UNL     1     155.840 164.109 189.180  0.00  0.00    +0.023 C 
ATOM     24  C   UNL     1     154.891 165.228 189.301  0.00  0.00    +0.332 C 
ATOM     25  O   UNL     1     155.172 166.412 189.295  0.00  0.00    -0.246 OA
ATOM     26  O   UNL     1     153.663 164.668 189.395  0.00  0.00    -0.458 OA
ATOM     27  H   UNL     1     152.709 166.365 188.711  0.00  0.00    +0.074 HD
ATOM     28  H   UNL     1     151.128 163.848 189.439  0.00  0.00    +0.036 HD
ATOM     29  H   UNL     1     152.705 163.412 187.601  0.00  0.00    +0.060 HD
ATOM     30  H   UNL     1     149.961 163.733 186.336  0.00  0.00    +0.032 HD
ATOM     31  H   UNL     1     150.159 162.616 187.651  0.00  0.00    +0.032 HD
ATOM     32  H   UNL     1     151.816 162.583 185.082  0.00  0.00    +0.063 HD
ATOM     33  H   UNL     1     152.892 159.019 185.399  0.00  0.00    +0.059 HD
ATOM     34  H   UNL     1     152.564 160.354 184.242  0.00  0.00    +0.059 HD
ATOM     35  H   UNL     1     152.126 160.943 188.497  0.00  0.00    +0.063 HD
ATOM     36  H   UNL     1     151.644 158.482 188.894  0.00  0.00    +0.032 HD
ATOM     37  H   UNL     1     151.716 158.184 187.186  0.00  0.00    +0.032 HD
ATOM     38  H   UNL     1     154.143 158.669 187.185  0.00  0.00    +0.060 HD
ATOM     39  H   UNL     1     153.055 156.796 189.351  0.00  0.00    +0.033 HD
ATOM     40  H   UNL     1     153.609 156.395 187.722  0.00  0.00    +0.033 HD
ATOM     41  H   UNL     1     155.411 155.733 189.366  0.00  0.00    +0.057 HD
ATOM     42  H   UNL     1     156.925 157.531 189.960  0.00  0.00    +0.059 HD
ATOM     43  H   UNL     1     155.862 159.747 190.226  0.00  0.00    +0.064 HD
ATOM     44  H   UNL     1     156.189 159.316 187.198  0.00  0.00    +0.032 HD
ATOM     45  H   UNL     1     156.057 160.859 187.946  0.00  0.00    +0.032 HD
ATOM     46  H   UNL     1     158.292 158.801 188.364  0.00  0.00    +0.063 HD
ATOM     47  H   UNL     1     159.597 160.821 189.359  0.00  0.00    +0.066 HD
ATOM     48  H   UNL     1     156.942 161.865 190.361  0.00  0.00    +0.060 HD
ATOM     49  H   UNL     1     157.589 165.238 189.536  0.00  0.00    +0.062 HD
ATOM     50  H   UNL     1     155.401 163.148 188.934  0.00  0.00    +0.069 HD
ENDROOT
BRANCH  21  51
ATOM     51  C   UNL     1     159.245 163.446 188.243  0.00  0.00    -0.040 C 
ATOM     52  H   UNL     1     159.992 164.049 188.767  0.00  0.00    +0.028 HD
ATOM     53  H   UNL     1     158.961 163.989 187.340  0.00  0.00    +0.028 HD
ATOM     54  H   UNL     1     159.720 162.515 187.919  0.00  0.00    +0.028 HD
ENDBRANCH  21  51
BRANCH   2  55
ATOM     55  C   UNL     1     150.072 165.511 188.572  0.00  0.00    -0.057 C 
ATOM     56  H   UNL     1     149.516 165.620 189.510  0.00  0.00    +0.023 HD
ATOM     57  H   UNL     1     149.417 165.054 187.835  0.00  0.00    +0.023 HD
ATOM     58  H   UNL     1     150.276 166.512 188.187  0.00  0.00    +0.023 HD
ENDBRANCH   2  55
BRANCH   1  59
ATOM     59  C   UNL     1     152.322 166.115 190.839  0.00  0.00    +0.020 C 
ATOM     60  H   UNL     1     151.336 165.774 191.176  0.00  0.00    +0.036 HD
BRANCH  59  61
ATOM     61  C   UNL     1     153.291 165.477 191.843  0.00  0.00    -0.057 C 
ATOM     62  H   UNL     1     153.854 164.662 191.381  0.00  0.00    +0.023 HD
ATOM     63  H   UNL     1     153.998 166.182 192.274  0.00  0.00    +0.023 HD
ATOM     64  H   UNL     1     152.728 165.049 192.680  0.00  0.00    +0.023 HD
ENDBRANCH  59  61
BRANCH  59  65
ATOM     65  C   UNL     1     152.303 167.665 190.987  0.00  0.00    +0.064 C 
ATOM     66  H   UNL     1     153.322 167.993 191.233  0.00  0.00    +0.060 HD
BRANCH  65  67
ATOM     67  C   UNL     1     151.379 168.219 192.107  0.00  0.00    -0.017 C 
ATOM     68  H   UNL     1     151.701 167.830 193.076  0.00  0.00    +0.032 HD
BRANCH  67  69
ATOM     69  C   UNL     1     151.456 169.751 192.166  0.00  0.00    -0.060 C 
ATOM     70  H   UNL     1     151.075 170.123 193.126  0.00  0.00    +0.023 HD
ATOM     71  H   UNL     1     150.856 170.204 191.368  0.00  0.00    +0.023 HD
ATOM     72  H   UNL     1     152.478 170.121 192.071  0.00  0.00    +0.023 HD
ENDBRANCH  67  69
BRANCH  67  73
ATOM     73  C   UNL     1     149.892 167.812 191.937  0.00  0.00    -0.046 C 
ATOM     74  H   UNL     1     149.296 168.312 192.712  0.00  0.00    +0.027 HD
ATOM     75  H   UNL     1     149.512 168.176 190.975  0.00  0.00    +0.027 HD
BRANCH  73  76
ATOM     76  C   UNL     1     149.662 166.303 192.075  0.00  0.00    -0.026 C 
ATOM     77  H   UNL     1     148.947 165.947 191.326  0.00  0.00    +0.029 HD
ATOM     78  H   UNL     1     150.597 165.764 191.871  0.00  0.00    +0.029 HD
BRANCH  76  83
ATOM     79  C   UNL     1     147.448 166.398 195.038  0.00  0.00    +0.059 C 
ATOM     80  C   UNL     1     148.314 165.586 196.007  0.00  0.00    -0.000 C 
ATOM     81  C   UNL     1     149.761 166.065 195.942  0.00  0.00    +0.063 C 
ATOM     82  C   UNL     1     150.308 165.908 194.516  0.00  0.00    -0.000 C 
ATOM     83  C   UNL     1     149.187 165.899 193.474  0.00  0.00    +0.061 C 
ATOM     84  O   UNL     1     148.169 166.823 193.874  0.00  0.00    -0.373 OA
ATOM     85  H   UNL     1     147.135 167.318 195.545  0.00  0.00    +0.059 HD
ATOM     86  H   UNL     1     147.924 165.658 197.029  0.00  0.00    +0.032 HD
ATOM     87  H   UNL     1     148.284 164.514 195.762  0.00  0.00    +0.032 HD
ATOM     88  H   UNL     1     149.790 167.122 196.237  0.00  0.00    +0.060 HD
ATOM     89  H   UNL     1     150.995 166.748 194.326  0.00  0.00    +0.032 HD
ATOM     90  H   UNL     1     150.914 164.997 194.415  0.00  0.00    +0.032 HD
ATOM     91  H   UNL     1     148.744 164.895 193.404  0.00  0.00    +0.060 HD
BRANCH  79  92
ATOM     92  C   UNL     1     146.196 165.643 194.617  0.00  0.00    -0.039 C 
ATOM     93  H   UNL     1     146.403 164.969 193.780  0.00  0.00    +0.025 HD
ATOM     94  H   UNL     1     145.811 165.056 195.457  0.00  0.00    +0.025 HD
ATOM     95  H   UNL     1     145.395 166.331 194.324  0.00  0.00    +0.025 HD
ENDBRANCH  79  92
BRANCH  81  96
ATOM     96  O   UNL     1     150.528 165.295 196.875  0.00  0.00    -0.380 OA
BRANCH  96  97
ATOM     97  C   UNL     1     150.918 164.027 196.362  0.00  0.00    +0.037 C 
ATOM     98  H   UNL     1     150.013 163.433 196.206  0.00  0.00    +0.052 HD
ATOM     99  H   UNL     1     151.559 163.502 197.076  0.00  0.00    +0.052 HD
ATOM    100  H   UNL     1     151.429 164.134 195.400  0.00  0.00    +0.052 HD
ENDBRANCH  96  97
ENDBRANCH  81  96
ENDBRANCH  76  83
ENDBRANCH  73  76
ENDBRANCH  67  73
ENDBRANCH  65  67
BRANCH  65 101
ATOM    101  O   UNL     1     151.986 168.280 189.745  0.00  0.00    -0.391 OA
ATOM    102  H   UNL     1     151.416 167.672 189.246  0.00  0.00    +0.210 HD
ENDBRANCH  65 101
ENDBRANCH  59  65
ENDBRANCH   1  59
BRANCH  19 103
ATOM    103  O   UNL     1     158.369 159.879 190.680  0.00  0.00    -0.385 OA
ATOM    104  H   UNL     1     158.919 160.296 191.365  0.00  0.00    +0.210 HD
ENDBRANCH  19 103
BRANCH  18 105
ATOM    105  O   UNL     1     158.481 160.386 187.045  0.00  0.00    -0.377 OA
BRANCH 105 106
ATOM    106  C   UNL     1     157.462 160.801 186.142  0.00  0.00    +0.037 C 
ATOM    107  H   UNL     1     157.819 161.637 185.531  0.00  0.00    +0.052 HD
ATOM    108  H   UNL     1     156.553 161.088 186.675  0.00  0.00    +0.052 HD
ATOM    109  H   UNL     1     157.227 159.964 185.479  0.00  0.00    +0.052 HD
ENDBRANCH 105 106
ENDBRANCH  18 105
BRANCH   9 110
ATOM    110  O   UNL     1     150.251 160.271 187.896  0.00  0.00    -0.377 OA
BRANCH 110 111
ATOM    111  C   UNL     1     149.776 159.255 188.774  0.00  0.00    +0.037 C 
ATOM    112  H   UNL     1     150.321 158.331 188.554  0.00  0.00    +0.052 HD
ATOM    113  H   UNL     1     148.711 159.069 188.608  0.00  0.00    +0.052 HD
ATOM    114  H   UNL     1     149.960 159.517 189.817  0.00  0.00    +0.052 HD
ENDBRANCH 110 111
ENDBRANCH   9 110
BRANCH   5 115
ATOM    115  O   UNL     1     150.059 161.512 185.119  0.00  0.00    -0.377 OA
BRANCH 115 116
ATOM    116  C   UNL     1     148.873 162.277 185.278  0.00  0.00    +0.037 C 
ATOM    117  H   UNL     1     148.046 161.586 185.453  0.00  0.00    +0.052 HD
ATOM    118  H   UNL     1     148.948 162.953 186.131  0.00  0.00    +0.052 HD
ATOM    119  H   UNL     1     148.660 162.844 184.367  0.00  0.00    +0.052 HD
ENDBRANCH 115 116
ENDBRANCH   5 115
BRANCH   3 120
ATOM    120  O   UNL     1     152.063 165.055 186.454  0.00  0.00    -0.379 OA
BRANCH 120 121
ATOM    121  C   UNL     1     153.352 164.978 185.864  0.00  0.00    +0.037 C 
ATOM    122  H   UNL     1     153.771 165.990 185.825  0.00  0.00    +0.052 HD
ATOM    123  H   UNL     1     153.297 164.588 184.842  0.00  0.00    +0.052 HD
ATOM    124  H   UNL     1     154.019 164.353 186.469  0.00  0.00    +0.052 HD
ENDBRANCH 120 121
ENDBRANCH   3 120
TORSDOF 23
ENDMDL
MODEL 2
REMARK VINA RESULT:      -6.3      1.203      2.062
REMARK  Name = Lobophorolide_conf1
REMARK  23 active torsions:
REMARK  status: ('A' for Active; 'I' for Inactive)
REMARK    1  A    between atoms: C_1  and  C_2
REMARK    2  A    between atoms: C_4  and  O_53
REMARK    3  A    between atoms: C_6  and  C_8
REMARK    4  A    between atoms: C_8  and  C_9
REMARK    5  A    between atoms: C_9  and  C_10
REMARK    6  A    between atoms: C_10  and  C_11
REMARK    7  A    between atoms: C_10  and  C_12
REMARK    8  A    between atoms: C_12  and  C_13
REMARK    9  A    between atoms: C_12  and  O_52
REMARK   10  A    between atoms: C_13  and  C_14
REMARK   11  A    between atoms: C_13  and  C_15
REMARK   12  A    between atoms: C_16  and  C_51
REMARK   13  A    between atoms: C_17  and  O_49
REMARK   14  A    between atoms: C_19  and  O_47
REMARK   15  A    between atoms: C_23  and  O_45
REMARK   16  A    between atoms: C_32  and  O_43
REMARK   17  A    between atoms: C_33  and  O_42
REMARK   18  A    between atoms: C_35  and  C_41
REMARK   19  A    between atoms: O_43  and  C_44
REMARK   20  A    between atoms: O_45  and  C_46
REMARK   21  A    between atoms: O_47  and  C_48
REMARK   22  A    between atoms: O_49  and  C_50
REMARK   23  A    between atoms: O_53  and  C_54
REMARK                            x       y       z     vdW  Elec       q    Type
REMARK                         _______ _______ _______ _____ _____    ______ ____
ROOT
ATOM      1  C   UNL     1     152.096 165.915 189.746  0.00  0.00    +0.113 C 
ATOM      2  C   UNL     1     150.918 165.012 189.260  0.00  0.00    +0.020 C 
ATOM      3  C   UNL     1     151.236 164.365 187.858  0.00  0.00    +0.067 C 
ATOM      4  C   UNL     1     150.117 163.400 187.420  0.00  0.00    +0.003 C 
ATOM      5  C   UNL     1     150.523 162.386 186.342  0.00  0.00    +0.094 C 
ATOM      6  C   UNL     1     151.453 161.244 186.771  0.00  0.00    +0.145 C 
ATOM      7  C   UNL     1     152.063 160.475 185.605  0.00  0.00    +0.083 C 
ATOM      8  O   UNL     1     152.822 161.431 186.350  0.00  0.00    -0.363 OA
ATOM      9  C   UNL     1     151.337 160.631 188.173  0.00  0.00    +0.094 C 
ATOM     10  C   UNL     1     151.880 159.198 188.343  0.00  0.00    +0.003 C 
ATOM     11  C   UNL     1     153.400 158.974 188.320  0.00  0.00    +0.065 C 
ATOM     12  C   UNL     1     153.685 157.509 188.729  0.00  0.00    -0.008 C 
ATOM     13  C   UNL     1     155.103 157.285 189.145  0.00  0.00    -0.083 C 
ATOM     14  C   UNL     1     155.921 158.320 189.373  0.00  0.00    -0.059 C 
ATOM     15  C   UNL     1     155.498 159.758 189.223  0.00  0.00    +0.080 C 
ATOM     16  O   UNL     1     154.053 159.879 189.216  0.00  0.00    -0.369 OA
ATOM     17  C   UNL     1     156.105 160.421 187.975  0.00  0.00    +0.006 C 
ATOM     18  C   UNL     1     157.647 160.500 187.926  0.00  0.00    +0.090 C 
ATOM     19  C   UNL     1     158.315 161.332 189.062  0.00  0.00    +0.100 C 
ATOM     20  C   UNL     1     157.576 162.599 189.380  0.00  0.00    -0.051 C 
ATOM     21  C   UNL     1     157.714 163.806 188.796  0.00  0.00    -0.052 C 
ATOM     22  C   UNL     1     156.770 164.872 189.093  0.00  0.00    -0.052 C 
ATOM     23  C   UNL     1     155.448 164.656 189.110  0.00  0.00    +0.023 C 
ATOM     24  C   UNL     1     154.469 165.727 189.355  0.00  0.00    +0.332 C 
ATOM     25  O   UNL     1     154.689 166.924 189.320  0.00  0.00    -0.246 OA
ATOM     26  O   UNL     1     153.290 165.108 189.596  0.00  0.00    -0.458 OA
ATOM     27  H   UNL     1     152.178 166.756 189.046  0.00  0.00    +0.074 HD
ATOM     28  H   UNL     1     150.823 164.166 189.950  0.00  0.00    +0.036 HD
ATOM     29  H   UNL     1     152.179 163.807 187.928  0.00  0.00    +0.060 HD
ATOM     30  H   UNL     1     149.287 163.993 187.015  0.00  0.00    +0.032 HD
ATOM     31  H   UNL     1     149.701 162.888 188.288  0.00  0.00    +0.032 HD
ATOM     32  H   UNL     1     151.026 162.934 185.534  0.00  0.00    +0.063 HD
ATOM     33  H   UNL     1     152.304 159.427 185.695  0.00  0.00    +0.059 HD
ATOM     34  H   UNL     1     151.771 160.744 184.596  0.00  0.00    +0.059 HD
ATOM     35  H   UNL     1     151.835 161.313 188.875  0.00  0.00    +0.063 HD
ATOM     36  H   UNL     1     151.526 158.831 189.314  0.00  0.00    +0.032 HD
ATOM     37  H   UNL     1     151.401 158.536 187.609  0.00  0.00    +0.032 HD
ATOM     38  H   UNL     1     153.782 159.139 187.310  0.00  0.00    +0.060 HD
ATOM     39  H   UNL     1     153.063 157.216 189.584  0.00  0.00    +0.033 HD
ATOM     40  H   UNL     1     153.429 156.842 187.897  0.00  0.00    +0.033 HD
ATOM     41  H   UNL     1     155.451 156.269 189.300  0.00  0.00    +0.057 HD
ATOM     42  H   UNL     1     156.939 158.139 189.713  0.00  0.00    +0.059 HD
ATOM     43  H   UNL     1     155.811 160.301 190.121  0.00  0.00    +0.064 HD
ATOM     44  H   UNL     1     155.780 159.884 187.073  0.00  0.00    +0.032 HD
ATOM     45  H   UNL     1     155.668 161.419 187.841  0.00  0.00    +0.032 HD
ATOM     46  H   UNL     1     158.034 159.474 187.967  0.00  0.00    +0.063 HD
ATOM     47  H   UNL     1     159.353 161.555 188.804  0.00  0.00    +0.066 HD
ATOM     48  H   UNL     1     156.795 162.469 190.133  0.00  0.00    +0.060 HD
ATOM     49  H   UNL     1     157.171 165.869 189.253  0.00  0.00    +0.062 HD
ATOM     50  H   UNL     1     155.029 163.674 188.916  0.00  0.00    +0.069 HD
ENDROOT
BRANCH  21  51
ATOM     51  C   UNL     1     158.739 164.159 187.755  0.00  0.00    -0.040 C 
ATOM     52  H   UNL     1     158.673 163.471 186.908  0.00  0.00    +0.028 HD
ATOM     53  H   UNL     1     159.763 164.122 188.128  0.00  0.00    +0.028 HD
ATOM     54  H   UNL     1     158.570 165.175 187.387  0.00  0.00    +0.028 HD
ENDBRANCH  21  51
BRANCH   2  55
ATOM     55  C   UNL     1     149.588 165.775 189.229  0.00  0.00    -0.057 C 
ATOM     56  H   UNL     1     149.522 166.432 188.356  0.00  0.00    +0.023 HD
ATOM     57  H   UNL     1     149.458 166.376 190.125  0.00  0.00    +0.023 HD
ATOM     58  H   UNL     1     148.724 165.107 189.211  0.00  0.00    +0.023 HD
ENDBRANCH   2  55
BRANCH   1  59
ATOM     59  C   UNL     1     152.070 166.489 191.204  0.00  0.00    +0.020 C 
ATOM     60  H   UNL     1     151.090 166.216 191.612  0.00  0.00    +0.036 HD
BRANCH  59  61
ATOM     61  C   UNL     1     153.062 165.768 192.126  0.00  0.00    -0.057 C 
ATOM     62  H   UNL     1     152.841 165.974 193.177  0.00  0.00    +0.023 HD
ATOM     63  H   UNL     1     153.084 164.690 191.985  0.00  0.00    +0.023 HD
ATOM     64  H   UNL     1     154.078 166.129 191.932  0.00  0.00    +0.023 HD
ENDBRANCH  59  61
BRANCH  59  65
ATOM     65  C   UNL     1     152.177 168.034 191.366  0.00  0.00    +0.064 C 
ATOM     66  H   UNL     1     153.186 168.266 191.732  0.00  0.00    +0.060 HD
BRANCH  65  67
ATOM     67  C   UNL     1     151.183 168.670 192.377  0.00  0.00    -0.017 C 
ATOM     68  H   UNL     1     151.723 168.990 193.272  0.00  0.00    +0.032 HD
BRANCH  67  69
ATOM     69  C   UNL     1     150.506 169.907 191.769  0.00  0.00    -0.060 C 
ATOM     70  H   UNL     1     150.138 170.576 192.557  0.00  0.00    +0.023 HD
ATOM     71  H   UNL     1     149.653 169.619 191.145  0.00  0.00    +0.023 HD
ATOM     72  H   UNL     1     151.190 170.496 191.154  0.00  0.00    +0.023 HD
ENDBRANCH  67  69
BRANCH  67  73
ATOM     73  C   UNL     1     150.076 167.694 192.851  0.00  0.00    -0.046 C 
ATOM     74  H   UNL     1     150.310 166.685 192.486  0.00  0.00    +0.027 HD
ATOM     75  H   UNL     1     150.074 167.631 193.946  0.00  0.00    +0.027 HD
BRANCH  73  76
ATOM     76  C   UNL     1     148.683 168.066 192.329  0.00  0.00    -0.026 C 
ATOM     77  H   UNL     1     148.510 169.144 192.410  0.00  0.00    +0.029 HD
ATOM     78  H   UNL     1     148.614 167.835 191.258  0.00  0.00    +0.029 HD
BRANCH  76  83
ATOM     79  C   UNL     1     147.242 165.456 194.521  0.00  0.00    +0.059 C 
ATOM     80  C   UNL     1     145.762 165.639 194.166  0.00  0.00    -0.000 C 
ATOM     81  C   UNL     1     145.598 165.744 192.653  0.00  0.00    +0.063 C 
ATOM     82  C   UNL     1     146.402 166.935 192.112  0.00  0.00    -0.000 C 
ATOM     83  C   UNL     1     147.559 167.309 193.042  0.00  0.00    +0.061 C 
ATOM     84  O   UNL     1     148.119 166.114 193.597  0.00  0.00    -0.373 OA
ATOM     85  H   UNL     1     147.484 164.390 194.451  0.00  0.00    +0.059 HD
ATOM     86  H   UNL     1     145.162 164.815 194.568  0.00  0.00    +0.032 HD
ATOM     87  H   UNL     1     145.353 166.548 194.631  0.00  0.00    +0.032 HD
ATOM     88  H   UNL     1     145.962 164.812 192.199  0.00  0.00    +0.060 HD
ATOM     89  H   UNL     1     146.789 166.655 191.120  0.00  0.00    +0.032 HD
ATOM     90  H   UNL     1     145.761 167.811 191.947  0.00  0.00    +0.032 HD
ATOM     91  H   UNL     1     147.193 167.941 193.864  0.00  0.00    +0.060 HD
BRANCH  79  92
ATOM     92  C   UNL     1     147.554 165.918 195.937  0.00  0.00    -0.039 C 
ATOM     93  H   UNL     1     146.688 166.408 196.393  0.00  0.00    +0.025 HD
ATOM     94  H   UNL     1     147.841 165.061 196.556  0.00  0.00    +0.025 HD
ATOM     95  H   UNL     1     148.400 166.613 195.953  0.00  0.00    +0.025 HD
ENDBRANCH  79  92
BRANCH  81  96
ATOM     96  O   UNL     1     144.202 165.892 192.365  0.00  0.00    -0.380 OA
BRANCH  96  97
ATOM     97  C   UNL     1     143.430 166.216 193.515  0.00  0.00    +0.037 C 
ATOM     98  H   UNL     1     142.373 166.127 193.248  0.00  0.00    +0.052 HD
ATOM     99  H   UNL     1     143.622 167.245 193.832  0.00  0.00    +0.052 HD
ATOM    100  H   UNL     1     143.637 165.522 194.335  0.00  0.00    +0.052 HD
ENDBRANCH  96  97
ENDBRANCH  81  96
ENDBRANCH  76  83
ENDBRANCH  73  76
ENDBRANCH  67  73
ENDBRANCH  65  67
BRANCH  65 101
ATOM    101  O   UNL     1     152.065 168.676 190.103  0.00  0.00    -0.391 OA
ATOM    102  H   UNL     1     152.681 169.428 190.093  0.00  0.00    +0.210 HD
ENDBRANCH  65 101
ENDBRANCH  59  65
ENDBRANCH   1  59
BRANCH  19 103
ATOM    103  O   UNL     1     158.346 160.554 190.262  0.00  0.00    -0.385 OA
ATOM    104  H   UNL     1     157.821 161.033 190.927  0.00  0.00    +0.210 HD
ENDBRANCH  19 103
BRANCH  18 105
ATOM    105  O   UNL     1     157.981 161.065 186.643  0.00  0.00    -0.377 OA
BRANCH 105 106
ATOM    106  C   UNL     1     156.840 161.439 185.880  0.00  0.00    +0.037 C 
ATOM    107  H   UNL     1     157.113 162.203 185.145  0.00  0.00    +0.052 HD
ATOM    108  H   UNL     1     156.036 161.806 186.523  0.00  0.00    +0.052 HD
ATOM    109  H   UNL     1     156.479 160.556 185.344  0.00  0.00    +0.052 HD
ENDBRANCH 105 106
ENDBRANCH  18 105
BRANCH   9 110
ATOM    110  O   UNL     1     149.935 160.549 188.507  0.00  0.00    -0.377 OA
BRANCH 110 111
ATOM    111  C   UNL     1     149.493 159.232 188.817  0.00  0.00    +0.037 C 
ATOM    112  H   UNL     1     149.140 158.763 187.893  0.00  0.00    +0.052 HD
ATOM    113  H   UNL     1     148.659 159.261 189.523  0.00  0.00    +0.052 HD
ATOM    114  H   UNL     1     150.308 158.625 189.215  0.00  0.00    +0.052 HD
ENDBRANCH 110 111
ENDBRANCH   9 110
BRANCH   5 115
ATOM    115  O   UNL     1     149.341 161.779 185.783  0.00  0.00    -0.377 OA
BRANCH 115 116
ATOM    116  C   UNL     1     148.145 162.472 186.111  0.00  0.00    +0.037 C 
ATOM    117  H   UNL     1     147.963 163.218 185.336  0.00  0.00    +0.052 HD
ATOM    118  H   UNL     1     147.292 161.794 186.148  0.00  0.00    +0.052 HD
ATOM    119  H   UNL     1     148.256 162.989 187.069  0.00  0.00    +0.052 HD
ENDBRANCH 115 116
ENDBRANCH   5 115
BRANCH   3 120
ATOM    120  O   UNL     1     151.321 165.416 186.879  0.00  0.00    -0.379 OA
BRANCH 120 121
ATOM    121  C   UNL     1     152.529 165.400 186.132  0.00  0.00    +0.037 C 
ATOM    122  H   UNL     1     152.387 166.021 185.240  0.00  0.00    +0.052 HD
ATOM    123  H   UNL     1     152.780 164.385 185.808  0.00  0.00    +0.052 HD
ATOM    124  H   UNL     1     153.353 165.824 186.717  0.00  0.00    +0.052 HD
ENDBRANCH 120 121
ENDBRANCH   3 120
TORSDOF 23
ENDMDL
MODEL 3
REMARK VINA RESULT:      -6.2      2.153      3.472
REMARK  Name = Lobophorolide_conf1
REMARK  23 active torsions:
REMARK  status: ('A' for Active; 'I' for Inactive)
REMARK    1  A    between atoms: C_1  and  C_2
REMARK    2  A    between atoms: C_4  and  O_53
REMARK    3  A    between atoms: C_6  and  C_8
REMARK    4  A    between atoms: C_8  and  C_9
REMARK    5  A    between atoms: C_9  and  C_10
REMARK    6  A    between atoms: C_10  and  C_11
REMARK    7  A    between atoms: C_10  and  C_12
REMARK    8  A    between atoms: C_12  and  C_13
REMARK    9  A    between atoms: C_12  and  O_52
REMARK   10  A    between atoms: C_13  and  C_14
REMARK   11  A    between atoms: C_13  and  C_15
REMARK   12  A    between atoms: C_16  and  C_51
REMARK   13  A    between atoms: C_17  and  O_49
REMARK   14  A    between atoms: C_19  and  O_47
REMARK   15  A    between atoms: C_23  and  O_45
REMARK   16  A    between atoms: C_32  and  O_43
REMARK   17  A    between atoms: C_33  and  O_42
REMARK   18  A    between atoms: C_35  and  C_41
REMARK   19  A    between atoms: O_43  and  C_44
REMARK   20  A    between atoms: O_45  and  C_46
REMARK   21  A    between atoms: O_47  and  C_48
REMARK   22  A    between atoms: O_49  and  C_50
REMARK   23  A    between atoms: O_53  and  C_54
REMARK                            x       y       z     vdW  Elec       q    Type
REMARK                         _______ _______ _______ _____ _____    ______ ____
ROOT
ATOM      1  C   UNL     1     154.496 164.137 188.520  0.00  0.00    +0.113 C 
ATOM      2  C   UNL     1     153.718 163.009 187.771  0.00  0.00    +0.020 C 
ATOM      3  C   UNL     1     154.696 162.105 186.926  0.00  0.00    +0.067 C 
ATOM      4  C   UNL     1     153.943 160.936 186.261  0.00  0.00    +0.003 C 
ATOM      5  C   UNL     1     154.830 159.762 185.823  0.00  0.00    +0.094 C 
ATOM      6  C   UNL     1     155.406 158.870 186.930  0.00  0.00    +0.145 C 
ATOM      7  C   UNL     1     156.515 157.939 186.456  0.00  0.00    +0.083 C 
ATOM      8  O   UNL     1     156.802 159.125 187.203  0.00  0.00    -0.363 OA
ATOM      9  C   UNL     1     154.592 158.582 188.199  0.00  0.00    +0.094 C 
ATOM     10  C   UNL     1     154.963 157.302 188.975  0.00  0.00    +0.003 C 
ATOM     11  C   UNL     1     156.284 157.267 189.759  0.00  0.00    +0.065 C 
ATOM     12  C   UNL     1     156.311 155.979 190.616  0.00  0.00    -0.008 C 
ATOM     13  C   UNL     1     157.322 156.032 191.716  0.00  0.00    -0.083 C 
ATOM     14  C   UNL     1     157.921 157.183 192.041  0.00  0.00    -0.059 C 
ATOM     15  C   UNL     1     157.644 158.487 191.338  0.00  0.00    +0.080 C 
ATOM     16  O   UNL     1     156.402 158.425 190.593  0.00  0.00    -0.369 OA
ATOM     17  C   UNL     1     158.804 158.920 190.426  0.00  0.00    +0.006 C 
ATOM     18  C   UNL     1     160.160 159.175 191.121  0.00  0.00    +0.090 C 
ATOM     19  C   UNL     1     160.170 160.318 192.180  0.00  0.00    +0.100 C 
ATOM     20  C   UNL     1     159.382 161.524 191.756  0.00  0.00    -0.051 C 
ATOM     21  C   UNL     1     159.805 162.575 191.027  0.00  0.00    -0.052 C 
ATOM     22  C   UNL     1     158.850 163.556 190.537  0.00  0.00    -0.052 C 
ATOM     23  C   UNL     1     157.699 163.188 189.959  0.00  0.00    +0.023 C 
ATOM     24  C   UNL     1     156.740 164.158 189.406  0.00  0.00    +0.332 C 
ATOM     25  O   UNL     1     156.957 165.334 189.178  0.00  0.00    -0.246 OA
ATOM     26  O   UNL     1     155.596 163.470 189.189  0.00  0.00    -0.458 OA
ATOM     27  H   UNL     1     154.928 164.801 187.761  0.00  0.00    +0.074 HD
ATOM     28  H   UNL     1     153.280 162.335 188.516  0.00  0.00    +0.036 HD
ATOM     29  H   UNL     1     155.469 161.698 187.590  0.00  0.00    +0.060 HD
ATOM     30  H   UNL     1     153.437 161.316 185.363  0.00  0.00    +0.032 HD
ATOM     31  H   UNL     1     153.141 160.586 186.911  0.00  0.00    +0.032 HD
ATOM     32  H   UNL     1     155.677 160.172 185.256  0.00  0.00    +0.063 HD
ATOM     33  H   UNL     1     156.669 156.976 186.919  0.00  0.00    +0.059 HD
ATOM     34  H   UNL     1     156.776 157.934 185.404  0.00  0.00    +0.059 HD
ATOM     35  H   UNL     1     154.673 159.460 188.852  0.00  0.00    +0.063 HD
ATOM     36  H   UNL     1     154.163 157.123 189.705  0.00  0.00    +0.032 HD
ATOM     37  H   UNL     1     154.915 156.437 188.299  0.00  0.00    +0.032 HD
ATOM     38  H   UNL     1     157.126 157.245 189.064  0.00  0.00    +0.060 HD
ATOM     39  H   UNL     1     155.339 155.812 191.098  0.00  0.00    +0.033 HD
ATOM     40  H   UNL     1     156.505 155.115 189.970  0.00  0.00    +0.033 HD
ATOM     41  H   UNL     1     157.536 155.127 192.278  0.00  0.00    +0.057 HD
ATOM     42  H   UNL     1     158.626 157.211 192.869  0.00  0.00    +0.059 HD
ATOM     43  H   UNL     1     157.464 159.254 192.099  0.00  0.00    +0.064 HD
ATOM     44  H   UNL     1     158.975 158.158 189.654  0.00  0.00    +0.032 HD
ATOM     45  H   UNL     1     158.503 159.801 189.843  0.00  0.00    +0.032 HD
ATOM     46  H   UNL     1     160.465 158.241 191.609  0.00  0.00    +0.063 HD
ATOM     47  H   UNL     1     161.197 160.603 192.417  0.00  0.00    +0.066 HD
ATOM     48  H   UNL     1     158.326 161.472 192.034  0.00  0.00    +0.060 HD
ATOM     49  H   UNL     1     159.124 164.605 190.611  0.00  0.00    +0.062 HD
ATOM     50  H   UNL     1     157.428 162.145 189.844  0.00  0.00    +0.069 HD
ENDROOT
BRANCH  21  51
ATOM     51  C   UNL     1     161.219 162.807 190.572  0.00  0.00    -0.040 C 
ATOM     52  H   UNL     1     161.241 163.523 189.747  0.00  0.00    +0.028 HD
ATOM     53  H   UNL     1     161.717 161.898 190.230  0.00  0.00    +0.028 HD
ATOM     54  H   UNL     1     161.820 163.209 191.393  0.00  0.00    +0.028 HD
ENDBRANCH  21  51
BRANCH   2  55
ATOM     55  C   UNL     1     152.592 163.575 186.897  0.00  0.00    -0.057 C 
ATOM     56  H   UNL     1     151.665 163.701 187.467  0.00  0.00    +0.023 HD
ATOM     57  H   UNL     1     152.390 162.928 186.048  0.00  0.00    +0.023 HD
ATOM     58  H   UNL     1     152.849 164.542 186.460  0.00  0.00    +0.023 HD
ENDBRANCH   2  55
BRANCH   1  59
ATOM     59  C   UNL     1     153.742 165.017 189.574  0.00  0.00    +0.020 C 
ATOM     60  H   UNL     1     152.695 164.695 189.533  0.00  0.00    +0.036 HD
BRANCH  59  61
ATOM     61  C   UNL     1     154.168 164.691 191.012  0.00  0.00    -0.057 C 
ATOM     62  H   UNL     1     155.219 164.391 191.050  0.00  0.00    +0.023 HD
ATOM     63  H   UNL     1     154.020 165.514 191.707  0.00  0.00    +0.023 HD
ATOM     64  H   UNL     1     153.577 163.851 191.391  0.00  0.00    +0.023 HD
ENDBRANCH  59  61
BRANCH  59  65
ATOM     65  C   UNL     1     153.717 166.555 189.333  0.00  0.00    +0.064 C 
ATOM     66  H   UNL     1     153.990 167.049 190.276  0.00  0.00    +0.060 HD
BRANCH  65  67
ATOM     67  C   UNL     1     152.343 167.144 188.909  0.00  0.00    -0.017 C 
ATOM     68  H   UNL     1     152.259 168.174 189.261  0.00  0.00    +0.032 HD
BRANCH  67  69
ATOM     69  C   UNL     1     152.207 167.157 187.379  0.00  0.00    -0.060 C 
ATOM     70  H   UNL     1     151.670 168.053 187.044  0.00  0.00    +0.023 HD
ATOM     71  H   UNL     1     151.650 166.281 187.029  0.00  0.00    +0.023 HD
ATOM     72  H   UNL     1     153.175 167.166 186.875  0.00  0.00    +0.023 HD
ENDBRANCH  67  69
BRANCH  67  73
ATOM     73  C   UNL     1     151.134 166.372 189.498  0.00  0.00    -0.046 C 
ATOM     74  H   UNL     1     150.559 165.928 188.674  0.00  0.00    +0.027 HD
ATOM     75  H   UNL     1     151.486 165.535 190.112  0.00  0.00    +0.027 HD
BRANCH  73  76
ATOM     76  C   UNL     1     150.182 167.268 190.298  0.00  0.00    -0.026 C 
ATOM     77  H   UNL     1     150.369 168.326 190.087  0.00  0.00    +0.029 HD
ATOM     78  H   UNL     1     149.146 167.083 189.985  0.00  0.00    +0.029 HD
BRANCH  76  83
ATOM     79  C   UNL     1     151.554 165.795 193.403  0.00  0.00    +0.059 C 
ATOM     80  C   UNL     1     150.437 166.199 194.371  0.00  0.00    -0.000 C 
ATOM     81  C   UNL     1     149.076 165.899 193.751  0.00  0.00    +0.063 C 
ATOM     82  C   UNL     1     148.911 166.670 192.433  0.00  0.00    -0.000 C 
ATOM     83  C   UNL     1     150.262 167.023 191.808  0.00  0.00    +0.061 C 
ATOM     84  O   UNL     1     151.177 165.943 192.027  0.00  0.00    -0.373 OA
ATOM     85  H   UNL     1     151.760 164.728 193.540  0.00  0.00    +0.059 HD
ATOM     86  H   UNL     1     150.551 165.683 195.331  0.00  0.00    +0.032 HD
ATOM     87  H   UNL     1     150.489 167.270 194.611  0.00  0.00    +0.032 HD
ATOM     88  H   UNL     1     149.011 164.819 193.561  0.00  0.00    +0.060 HD
ATOM     89  H   UNL     1     148.329 166.037 191.745  0.00  0.00    +0.032 HD
ATOM     90  H   UNL     1     148.317 167.584 192.573  0.00  0.00    +0.032 HD
ATOM     91  H   UNL     1     150.669 167.930 192.277  0.00  0.00    +0.060 HD
BRANCH  79  92
ATOM     92  C   UNL     1     152.844 166.561 193.663  0.00  0.00    -0.039 C 
ATOM     93  H   UNL     1     153.650 166.209 193.012  0.00  0.00    +0.025 HD
ATOM     94  H   UNL     1     152.687 167.630 193.487  0.00  0.00    +0.025 HD
ATOM     95  H   UNL     1     153.164 166.459 194.706  0.00  0.00    +0.025 HD
ENDBRANCH  79  92
BRANCH  81  96
ATOM     96  O   UNL     1     148.064 166.270 194.694  0.00  0.00    -0.380 OA
BRANCH  96  97
ATOM     97  C   UNL     1     148.413 165.953 196.036  0.00  0.00    +0.037 C 
ATOM     98  H   UNL     1     149.451 166.254 196.196  0.00  0.00    +0.052 HD
ATOM     99  H   UNL     1     148.333 164.876 196.211  0.00  0.00    +0.052 HD
ATOM    100  H   UNL     1     147.783 166.500 196.745  0.00  0.00    +0.052 HD
ENDBRANCH  96  97
ENDBRANCH  81  96
ENDBRANCH  76  83
ENDBRANCH  73  76
ENDBRANCH  67  73
ENDBRANCH  65  67
BRANCH  65 101
ATOM    101  O   UNL     1     154.718 166.929 188.395  0.00  0.00    -0.391 OA
ATOM    102  H   UNL     1     154.867 167.886 188.482  0.00  0.00    +0.210 HD
ENDBRANCH  65 101
ENDBRANCH  59  65
ENDBRANCH   1  59
BRANCH  19 103
ATOM    103  O   UNL     1     159.582 159.842 193.394  0.00  0.00    -0.385 OA
ATOM    104  H   UNL     1     158.788 160.379 193.559  0.00  0.00    +0.210 HD
ENDBRANCH  19 103
BRANCH  18 105
ATOM    105  O   UNL     1     161.101 159.473 190.071  0.00  0.00    -0.377 OA
BRANCH 105 106
ATOM    106  C   UNL     1     160.505 159.526 188.781  0.00  0.00    +0.037 C 
ATOM    107  H   UNL     1     161.079 160.192 188.128  0.00  0.00    +0.052 HD
ATOM    108  H   UNL     1     159.466 159.860 188.838  0.00  0.00    +0.052 HD
ATOM    109  H   UNL     1     160.523 158.520 188.351  0.00  0.00    +0.052 HD
ENDBRANCH 105 106
ENDBRANCH  18 105
BRANCH   9 110
ATOM    110  O   UNL     1     153.213 158.405 187.810  0.00  0.00    -0.377 OA
BRANCH 110 111
ATOM    111  C   UNL     1     152.812 157.042 187.714  0.00  0.00    +0.037 C 
ATOM    112  H   UNL     1     153.600 156.422 188.154  0.00  0.00    +0.052 HD
ATOM    113  H   UNL     1     152.693 156.748 186.668  0.00  0.00    +0.052 HD
ATOM    114  H   UNL     1     151.889 156.862 188.269  0.00  0.00    +0.052 HD
ENDBRANCH 110 111
ENDBRANCH   9 110
BRANCH   5 115
ATOM    115  O   UNL     1     154.088 158.904 184.934  0.00  0.00    -0.377 OA
BRANCH 115 116
ATOM    116  C   UNL     1     152.886 159.493 184.458  0.00  0.00    +0.037 C 
ATOM    117  H   UNL     1     152.093 159.268 185.173  0.00  0.00    +0.052 HD
ATOM    118  H   UNL     1     152.982 160.576 184.375  0.00  0.00    +0.052 HD
ATOM    119  H   UNL     1     152.610 159.064 183.490  0.00  0.00    +0.052 HD
ENDBRANCH 115 116
ENDBRANCH   5 115
BRANCH   3 120
ATOM    120  O   UNL     1     155.273 162.910 185.882  0.00  0.00    -0.379 OA
BRANCH 120 121
ATOM    121  C   UNL     1     156.693 162.882 185.862  0.00  0.00    +0.037 C 
ATOM    122  H   UNL     1     157.050 162.947 186.896  0.00  0.00    +0.052 HD
ATOM    123  H   UNL     1     157.097 163.732 185.302  0.00  0.00    +0.052 HD
ATOM    124  H   UNL     1     157.056 161.941 185.432  0.00  0.00    +0.052 HD
ENDBRANCH 120 121
ENDBRANCH   3 120
TORSDOF 23
ENDMDL
MODEL 4
REMARK VINA RESULT:      -6.2      2.728      3.929
REMARK  Name = Lobophorolide_conf1
REMARK  23 active torsions:
REMARK  status: ('A' for Active; 'I' for Inactive)
REMARK    1  A    between atoms: C_1  and  C_2
REMARK    2  A    between atoms: C_4  and  O_53
REMARK    3  A    between atoms: C_6  and  C_8
REMARK    4  A    between atoms: C_8  and  C_9
REMARK    5  A    between atoms: C_9  and  C_10
REMARK    6  A    between atoms: C_10  and  C_11
REMARK    7  A    between atoms: C_10  and  C_12
REMARK    8  A    between atoms: C_12  and  C_13
REMARK    9  A    between atoms: C_12  and  O_52
REMARK   10  A    between atoms: C_13  and  C_14
REMARK   11  A    between atoms: C_13  and  C_15
REMARK   12  A    between atoms: C_16  and  C_51
REMARK   13  A    between atoms: C_17  and  O_49
REMARK   14  A    between atoms: C_19  and  O_47
REMARK   15  A    between atoms: C_23  and  O_45
REMARK   16  A    between atoms: C_32  and  O_43
REMARK   17  A    between atoms: C_33  and  O_42
REMARK   18  A    between atoms: C_35  and  C_41
REMARK   19  A    between atoms: O_43  and  C_44
REMARK   20  A    between atoms: O_45  and  C_46
REMARK   21  A    between atoms: O_47  and  C_48
REMARK   22  A    between atoms: O_49  and  C_50
REMARK   23  A    between atoms: O_53  and  C_54
REMARK                            x       y       z     vdW  Elec       q    Type
REMARK                         _______ _______ _______ _____ _____    ______ ____
ROOT
ATOM      1  C   UNL     1     154.665 164.142 188.214  0.00  0.00    +0.113 C 
ATOM      2  C   UNL     1     153.945 163.084 187.319  0.00  0.00    +0.020 C 
ATOM      3  C   UNL     1     154.986 162.211 186.518  0.00  0.00    +0.067 C 
ATOM      4  C   UNL     1     154.283 161.105 185.706  0.00  0.00    +0.003 C 
ATOM      5  C   UNL     1     155.187 159.939 185.283  0.00  0.00    +0.094 C 
ATOM      6  C   UNL     1     155.631 158.965 186.382  0.00  0.00    +0.145 C 
ATOM      7  C   UNL     1     156.765 158.038 185.961  0.00  0.00    +0.083 C 
ATOM      8  O   UNL     1     156.997 159.167 186.808  0.00  0.00    -0.363 OA
ATOM      9  C   UNL     1     154.689 158.618 187.542  0.00  0.00    +0.094 C 
ATOM     10  C   UNL     1     154.955 157.282 188.266  0.00  0.00    +0.003 C 
ATOM     11  C   UNL     1     156.189 157.165 189.173  0.00  0.00    +0.065 C 
ATOM     12  C   UNL     1     156.105 155.826 189.943  0.00  0.00    -0.008 C 
ATOM     13  C   UNL     1     157.002 155.783 191.139  0.00  0.00    -0.083 C 
ATOM     14  C   UNL     1     157.586 156.896 191.596  0.00  0.00    -0.059 C 
ATOM     15  C   UNL     1     157.406 158.249 190.956  0.00  0.00    +0.080 C 
ATOM     16  O   UNL     1     156.245 158.264 190.088  0.00  0.00    -0.369 OA
ATOM     17  C   UNL     1     158.660 158.709 190.194  0.00  0.00    +0.006 C 
ATOM     18  C   UNL     1     159.943 158.885 191.036  0.00  0.00    +0.090 C 
ATOM     19  C   UNL     1     159.868 159.959 192.163  0.00  0.00    +0.100 C 
ATOM     20  C   UNL     1     159.149 161.208 191.742  0.00  0.00    -0.051 C 
ATOM     21  C   UNL     1     159.664 162.292 191.129  0.00  0.00    -0.052 C 
ATOM     22  C   UNL     1     158.781 163.326 190.611  0.00  0.00    -0.052 C 
ATOM     23  C   UNL     1     157.688 163.024 189.899  0.00  0.00    +0.023 C 
ATOM     24  C   UNL     1     156.808 164.051 189.318  0.00  0.00    +0.332 C 
ATOM     25  O   UNL     1     157.069 165.233 189.189  0.00  0.00    -0.246 OA
ATOM     26  O   UNL     1     155.678 163.406 188.944  0.00  0.00    -0.458 OA
ATOM     27  H   UNL     1     155.184 164.841 187.546  0.00  0.00    +0.074 HD
ATOM     28  H   UNL     1     153.422 162.375 187.971  0.00  0.00    +0.036 HD
ATOM     29  H   UNL     1     155.681 161.743 187.228  0.00  0.00    +0.060 HD
ATOM     30  H   UNL     1     153.877 161.553 184.790  0.00  0.00    +0.032 HD
ATOM     31  H   UNL     1     153.413 160.735 186.250  0.00  0.00    +0.032 HD
ATOM     32  H   UNL     1     156.094 160.362 184.831  0.00  0.00    +0.063 HD
ATOM     33  H   UNL     1     156.853 157.044 186.373  0.00  0.00    +0.059 HD
ATOM     34  H   UNL     1     157.131 158.093 184.941  0.00  0.00    +0.059 HD
ATOM     35  H   UNL     1     154.720 159.451 188.256  0.00  0.00    +0.063 HD
ATOM     36  H   UNL     1     154.083 157.078 188.900  0.00  0.00    +0.032 HD
ATOM     37  H   UNL     1     154.959 156.463 187.534  0.00  0.00    +0.032 HD
ATOM     38  H   UNL     1     157.096 157.166 188.565  0.00  0.00    +0.060 HD
ATOM     39  H   UNL     1     155.087 155.653 190.314  0.00  0.00    +0.033 HD
ATOM     40  H   UNL     1     156.348 154.999 189.264  0.00  0.00    +0.033 HD
ATOM     41  H   UNL     1     157.140 154.840 191.659  0.00  0.00    +0.057 HD
ATOM     42  H   UNL     1     158.204 156.854 192.490  0.00  0.00    +0.059 HD
ATOM     43  H   UNL     1     157.165 158.970 191.744  0.00  0.00    +0.064 HD
ATOM     44  H   UNL     1     158.894 157.993 189.395  0.00  0.00    +0.032 HD
ATOM     45  H   UNL     1     158.436 159.632 189.642  0.00  0.00    +0.032 HD
ATOM     46  H   UNL     1     160.180 157.914 191.489  0.00  0.00    +0.063 HD
ATOM     47  H   UNL     1     160.871 160.202 192.519  0.00  0.00    +0.066 HD
ATOM     48  H   UNL     1     158.071 161.165 191.910  0.00  0.00    +0.060 HD
ATOM     49  H   UNL     1     159.066 164.361 190.780  0.00  0.00    +0.062 HD
ATOM     50  H   UNL     1     157.410 161.997 189.690  0.00  0.00    +0.069 HD
ENDROOT
BRANCH  21  51
ATOM     51  C   UNL     1     161.120 162.516 190.833  0.00  0.00    -0.040 C 
ATOM     52  H   UNL     1     161.742 161.914 191.502  0.00  0.00    +0.028 HD
ATOM     53  H   UNL     1     161.429 163.556 190.947  0.00  0.00    +0.028 HD
ATOM     54  H   UNL     1     161.346 162.228 189.802  0.00  0.00    +0.028 HD
ENDBRANCH  21  51
BRANCH   2  55
ATOM     55  C   UNL     1     152.924 163.732 186.376  0.00  0.00    -0.057 C 
ATOM     56  H   UNL     1     152.175 163.008 186.036  0.00  0.00    +0.023 HD
ATOM     57  H   UNL     1     153.410 164.160 185.504  0.00  0.00    +0.023 HD
ATOM     58  H   UNL     1     152.395 164.566 186.842  0.00  0.00    +0.023 HD
ENDBRANCH   2  55
BRANCH   1  59
ATOM     59  C   UNL     1     153.825 164.973 189.243  0.00  0.00    +0.020 C 
ATOM     60  H   UNL     1     152.776 164.786 188.987  0.00  0.00    +0.036 HD
BRANCH  59  61
ATOM     61  C   UNL     1     153.955 164.427 190.671  0.00  0.00    -0.057 C 
ATOM     62  H   UNL     1     154.530 165.112 191.301  0.00  0.00    +0.023 HD
ATOM     63  H   UNL     1     152.999 164.237 191.153  0.00  0.00    +0.023 HD
ATOM     64  H   UNL     1     154.493 163.473 190.655  0.00  0.00    +0.023 HD
ENDBRANCH  59  61
BRANCH  59  65
ATOM     65  C   UNL     1     153.993 166.521 189.217  0.00  0.00    +0.064 C 
ATOM     66  H   UNL     1     154.395 166.832 190.191  0.00  0.00    +0.060 HD
BRANCH  65  67
ATOM     67  C   UNL     1     152.685 167.332 189.001  0.00  0.00    -0.017 C 
ATOM     68  H   UNL     1     152.900 168.401 189.068  0.00  0.00    +0.032 HD
BRANCH  67  69
ATOM     69  C   UNL     1     152.100 167.056 187.608  0.00  0.00    -0.060 C 
ATOM     70  H   UNL     1     151.611 167.953 187.207  0.00  0.00    +0.023 HD
ATOM     71  H   UNL     1     151.353 166.256 187.649  0.00  0.00    +0.023 HD
ATOM     72  H   UNL     1     152.865 166.769 186.884  0.00  0.00    +0.023 HD
ENDBRANCH  67  69
BRANCH  67  73
ATOM     73  C   UNL     1     151.591 167.030 190.056  0.00  0.00    -0.046 C 
ATOM     74  H   UNL     1     150.629 167.413 189.691  0.00  0.00    +0.027 HD
ATOM     75  H   UNL     1     151.467 165.947 190.169  0.00  0.00    +0.027 HD
BRANCH  73  76
ATOM     76  C   UNL     1     151.867 167.687 191.413  0.00  0.00    -0.026 C 
ATOM     77  H   UNL     1     152.143 166.937 192.162  0.00  0.00    +0.029 HD
ATOM     78  H   UNL     1     152.733 168.357 191.333  0.00  0.00    +0.029 HD
BRANCH  76  83
ATOM     79  C   UNL     1     148.389 168.949 191.416  0.00  0.00    +0.059 C 
ATOM     80  C   UNL     1     148.547 170.078 192.440  0.00  0.00    -0.000 C 
ATOM     81  C   UNL     1     149.804 170.887 192.136  0.00  0.00    +0.063 C 
ATOM     82  C   UNL     1     151.043 169.981 192.182  0.00  0.00    -0.000 C 
ATOM     83  C   UNL     1     150.685 168.515 191.926  0.00  0.00    +0.061 C 
ATOM     84  O   UNL     1     149.647 168.451 190.941  0.00  0.00    -0.373 OA
ATOM     85  H   UNL     1     147.879 169.353 190.534  0.00  0.00    +0.059 HD
ATOM     86  H   UNL     1     147.660 170.722 192.448  0.00  0.00    +0.032 HD
ATOM     87  H   UNL     1     148.621 169.678 193.462  0.00  0.00    +0.032 HD
ATOM     88  H   UNL     1     149.700 171.326 191.134  0.00  0.00    +0.060 HD
ATOM     89  H   UNL     1     151.748 170.338 191.414  0.00  0.00    +0.032 HD
ATOM     90  H   UNL     1     151.572 170.071 193.140  0.00  0.00    +0.032 HD
ATOM     91  H   UNL     1     150.321 168.048 192.852  0.00  0.00    +0.060 HD
BRANCH  79  92
ATOM     92  C   UNL     1     147.554 167.797 191.955  0.00  0.00    -0.039 C 
ATOM     93  H   UNL     1     147.359 167.917 193.026  0.00  0.00    +0.025 HD
ATOM     94  H   UNL     1     146.597 167.747 191.425  0.00  0.00    +0.025 HD
ATOM     95  H   UNL     1     148.051 166.835 191.795  0.00  0.00    +0.025 HD
ENDBRANCH  79  92
BRANCH  81  96
ATOM     96  O   UNL     1     149.901 171.941 193.102  0.00  0.00    -0.380 OA
BRANCH  96  97
ATOM     97  C   UNL     1     148.653 172.571 193.364  0.00  0.00    +0.037 C 
ATOM     98  H   UNL     1     148.233 172.899 192.409  0.00  0.00    +0.052 HD
ATOM     99  H   UNL     1     148.790 173.447 194.003  0.00  0.00    +0.052 HD
ATOM    100  H   UNL     1     147.950 171.871 193.826  0.00  0.00    +0.052 HD
ENDBRANCH  96  97
ENDBRANCH  81  96
ENDBRANCH  76  83
ENDBRANCH  73  76
ENDBRANCH  67  73
ENDBRANCH  65  67
BRANCH  65 101
ATOM    101  O   UNL     1     154.967 166.901 188.254  0.00  0.00    -0.391 OA
ATOM    102  H   UNL     1     155.729 166.304 188.348  0.00  0.00    +0.210 HD
ENDBRANCH  65 101
ENDBRANCH  59  65
ENDBRANCH   1  59
BRANCH  19 103
ATOM    103  O   UNL     1     159.152 159.422 193.279  0.00  0.00    -0.385 OA
ATOM    104  H   UNL     1     158.739 160.171 193.742  0.00  0.00    +0.210 HD
ENDBRANCH  19 103
BRANCH  18 105
ATOM    105  O   UNL     1     160.991 159.224 190.106  0.00  0.00    -0.377 OA
BRANCH 105 106
ATOM    106  C   UNL     1     160.533 159.354 188.765  0.00  0.00    +0.037 C 
ATOM    107  H   UNL     1     161.177 160.045 188.213  0.00  0.00    +0.052 HD
ATOM    108  H   UNL     1     159.497 159.699 188.733  0.00  0.00    +0.052 HD
ATOM    109  H   UNL     1     160.587 158.372 188.286  0.00  0.00    +0.052 HD
ENDBRANCH 105 106
ENDBRANCH  18 105
BRANCH   9 110
ATOM    110  O   UNL     1     153.353 158.501 187.007  0.00  0.00    -0.377 OA
BRANCH 110 111
ATOM    111  C   UNL     1     152.328 158.805 187.948  0.00  0.00    +0.037 C 
ATOM    112  H   UNL     1     151.866 159.754 187.656  0.00  0.00    +0.052 HD
ATOM    113  H   UNL     1     152.748 158.927 188.950  0.00  0.00    +0.052 HD
ATOM    114  H   UNL     1     151.552 158.037 187.950  0.00  0.00    +0.052 HD
ENDBRANCH 110 111
ENDBRANCH   9 110
BRANCH   5 115
ATOM    115  O   UNL     1     154.522 159.158 184.271  0.00  0.00    -0.377 OA
BRANCH 115 116
ATOM    116  C   UNL     1     153.403 159.817 183.697  0.00  0.00    +0.037 C 
ATOM    117  H   UNL     1     152.527 159.588 184.305  0.00  0.00    +0.052 HD
ATOM    118  H   UNL     1     153.544 160.899 183.685  0.00  0.00    +0.052 HD
ATOM    119  H   UNL     1     153.224 159.450 182.681  0.00  0.00    +0.052 HD
ENDBRANCH 115 116
ENDBRANCH   5 115
BRANCH   3 120
ATOM    120  O   UNL     1     155.680 163.065 185.591  0.00  0.00    -0.379 OA
BRANCH 120 121
ATOM    121  C   UNL     1     157.094 162.995 185.705  0.00  0.00    +0.037 C 
ATOM    122  H   UNL     1     157.351 162.982 186.770  0.00  0.00    +0.052 HD
ATOM    123  H   UNL     1     157.571 163.868 185.246  0.00  0.00    +0.052 HD
ATOM    124  H   UNL     1     157.476 162.075 185.248  0.00  0.00    +0.052 HD
ENDBRANCH 120 121
ENDBRANCH   3 120
TORSDOF 23
ENDMDL
MODEL 5
REMARK VINA RESULT:      -5.9      4.556      9.774
REMARK  Name = Lobophorolide_conf1
REMARK  23 active torsions:
REMARK  status: ('A' for Active; 'I' for Inactive)
REMARK    1  A    between atoms: C_1  and  C_2
REMARK    2  A    between atoms: C_4  and  O_53
REMARK    3  A    between atoms: C_6  and  C_8
REMARK    4  A    between atoms: C_8  and  C_9
REMARK    5  A    between atoms: C_9  and  C_10
REMARK    6  A    between atoms: C_10  and  C_11
REMARK    7  A    between atoms: C_10  and  C_12
REMARK    8  A    between atoms: C_12  and  C_13
REMARK    9  A    between atoms: C_12  and  O_52
REMARK   10  A    between atoms: C_13  and  C_14
REMARK   11  A    between atoms: C_13  and  C_15
REMARK   12  A    between atoms: C_16  and  C_51
REMARK   13  A    between atoms: C_17  and  O_49
REMARK   14  A    between atoms: C_19  and  O_47
REMARK   15  A    between atoms: C_23  and  O_45
REMARK   16  A    between atoms: C_32  and  O_43
REMARK   17  A    between atoms: C_33  and  O_42
REMARK   18  A    between atoms: C_35  and  C_41
REMARK   19  A    between atoms: O_43  and  C_44
REMARK   20  A    between atoms: O_45  and  C_46
REMARK   21  A    between atoms: O_47  and  C_48
REMARK   22  A    between atoms: O_49  and  C_50
REMARK   23  A    between atoms: O_53  and  C_54
REMARK                            x       y       z     vdW  Elec       q    Type
REMARK                         _______ _______ _______ _____ _____    ______ ____
ROOT
ATOM      1  C   UNL     1     155.918 164.952 187.117  0.00  0.00    +0.113 C 
ATOM      2  C   UNL     1     155.070 164.262 186.002  0.00  0.00    +0.020 C 
ATOM      3  C   UNL     1     153.991 163.294 186.622  0.00  0.00    +0.067 C 
ATOM      4  C   UNL     1     153.092 162.684 185.529  0.00  0.00    +0.003 C 
ATOM      5  C   UNL     1     151.754 162.123 186.031  0.00  0.00    +0.094 C 
ATOM      6  C   UNL     1     150.687 163.139 186.457  0.00  0.00    +0.145 C 
ATOM      7  C   UNL     1     149.527 162.525 187.233  0.00  0.00    +0.083 C 
ATOM      8  O   UNL     1     150.558 163.267 187.891  0.00  0.00    -0.363 OA
ATOM      9  C   UNL     1     150.551 164.480 185.724  0.00  0.00    +0.094 C 
ATOM     10  C   UNL     1     149.180 165.179 185.820  0.00  0.00    +0.003 C 
ATOM     11  C   UNL     1     148.765 165.815 187.155  0.00  0.00    +0.065 C 
ATOM     12  C   UNL     1     147.470 166.631 186.927  0.00  0.00    -0.008 C 
ATOM     13  C   UNL     1     147.202 167.616 188.019  0.00  0.00    -0.083 C 
ATOM     14  C   UNL     1     148.141 167.905 188.927  0.00  0.00    -0.059 C 
ATOM     15  C   UNL     1     149.508 167.269 188.934  0.00  0.00    +0.080 C 
ATOM     16  O   UNL     1     149.807 166.661 187.653  0.00  0.00    -0.369 OA
ATOM     17  C   UNL     1     149.674 166.249 190.073  0.00  0.00    +0.006 C 
ATOM     18  C   UNL     1     149.534 166.801 191.509  0.00  0.00    +0.090 C 
ATOM     19  C   UNL     1     150.578 167.882 191.921  0.00  0.00    +0.100 C 
ATOM     20  C   UNL     1     151.967 167.576 191.439  0.00  0.00    -0.051 C 
ATOM     21  C   UNL     1     152.911 166.833 192.050  0.00  0.00    -0.052 C 
ATOM     22  C   UNL     1     154.129 166.473 191.342  0.00  0.00    -0.052 C 
ATOM     23  C   UNL     1     154.101 166.013 190.085  0.00  0.00    +0.023 C 
ATOM     24  C   UNL     1     155.314 165.592 189.364  0.00  0.00    +0.332 C 
ATOM     25  O   UNL     1     156.404 165.372 189.858  0.00  0.00    -0.246 OA
ATOM     26  O   UNL     1     154.956 165.482 188.063  0.00  0.00    -0.458 OA
ATOM     27  H   UNL     1     156.487 164.168 187.633  0.00  0.00    +0.074 HD
ATOM     28  H   UNL     1     154.494 165.032 185.478  0.00  0.00    +0.036 HD
ATOM     29  H   UNL     1     153.363 163.861 187.322  0.00  0.00    +0.060 HD
ATOM     30  H   UNL     1     153.636 161.856 185.055  0.00  0.00    +0.032 HD
ATOM     31  H   UNL     1     152.927 163.408 184.730  0.00  0.00    +0.032 HD
ATOM     32  H   UNL     1     151.961 161.479 186.896  0.00  0.00    +0.063 HD
ATOM     33  H   UNL     1     148.535 162.944 187.173  0.00  0.00    +0.059 HD
ATOM     34  H   UNL     1     149.511 161.450 187.379  0.00  0.00    +0.059 HD
ATOM     35  H   UNL     1     151.343 165.143 186.095  0.00  0.00    +0.063 HD
ATOM     36  H   UNL     1     149.175 165.986 185.076  0.00  0.00    +0.032 HD
ATOM     37  H   UNL     1     148.394 164.490 185.481  0.00  0.00    +0.032 HD
ATOM     38  H   UNL     1     148.563 165.033 187.890  0.00  0.00    +0.060 HD
ATOM     39  H   UNL     1     147.534 167.210 185.997  0.00  0.00    +0.033 HD
ATOM     40  H   UNL     1     146.620 165.946 186.825  0.00  0.00    +0.033 HD
ATOM     41  H   UNL     1     146.244 168.129 188.041  0.00  0.00    +0.057 HD
ATOM     42  H   UNL     1     147.942 168.653 189.691  0.00  0.00    +0.059 HD
ATOM     43  H   UNL     1     150.253 168.065 189.036  0.00  0.00    +0.064 HD
ATOM     44  H   UNL     1     148.936 165.444 189.962  0.00  0.00    +0.032 HD
ATOM     45  H   UNL     1     150.632 165.724 189.958  0.00  0.00    +0.032 HD
ATOM     46  H   UNL     1     148.528 167.229 191.604  0.00  0.00    +0.063 HD
ATOM     47  H   UNL     1     150.576 168.014 193.005  0.00  0.00    +0.066 HD
ATOM     48  H   UNL     1     152.175 167.964 190.439  0.00  0.00    +0.060 HD
ATOM     49  H   UNL     1     155.067 166.544 191.887  0.00  0.00    +0.062 HD
ATOM     50  H   UNL     1     153.170 165.902 189.539  0.00  0.00    +0.069 HD
ENDROOT
BRANCH  21  51
ATOM     51  C   UNL     1     152.794 166.235 193.424  0.00  0.00    -0.040 C 
ATOM     52  H   UNL     1     151.805 166.438 193.845  0.00  0.00    +0.028 HD
ATOM     53  H   UNL     1     153.534 166.620 194.127  0.00  0.00    +0.028 HD
ATOM     54  H   UNL     1     152.931 165.151 193.378  0.00  0.00    +0.028 HD
ENDBRANCH  21  51
BRANCH   2  55
ATOM     55  C   UNL     1     155.953 163.529 184.985  0.00  0.00    -0.057 C 
ATOM     56  H   UNL     1     155.575 162.521 184.778  0.00  0.00    +0.023 HD
ATOM     57  H   UNL     1     156.977 163.448 185.337  0.00  0.00    +0.023 HD
ATOM     58  H   UNL     1     156.023 164.060 184.033  0.00  0.00    +0.023 HD
ENDBRANCH   2  55
BRANCH   1  59
ATOM     59  C   UNL     1     156.906 166.103 186.726  0.00  0.00    +0.020 C 
ATOM     60  H   UNL     1     157.002 166.728 187.621  0.00  0.00    +0.036 HD
BRANCH  59  61
ATOM     61  C   UNL     1     158.331 165.586 186.488  0.00  0.00    -0.057 C 
ATOM     62  H   UNL     1     158.362 164.493 186.521  0.00  0.00    +0.023 HD
ATOM     63  H   UNL     1     158.761 165.913 185.544  0.00  0.00    +0.023 HD
ATOM     64  H   UNL     1     158.995 165.953 187.278  0.00  0.00    +0.023 HD
ENDBRANCH  59  61
BRANCH  59  65
ATOM     65  C   UNL     1     156.464 167.069 185.587  0.00  0.00    +0.064 C 
ATOM     66  H   UNL     1     155.933 166.475 184.830  0.00  0.00    +0.060 HD
BRANCH  65  67
ATOM     67  C   UNL     1     157.616 167.801 184.845  0.00  0.00    -0.017 C 
ATOM     68  H   UNL     1     158.575 167.365 185.134  0.00  0.00    +0.032 HD
BRANCH  67  69
ATOM     69  C   UNL     1     157.468 167.646 183.325  0.00  0.00    -0.060 C 
ATOM     70  H   UNL     1     157.732 166.628 183.010  0.00  0.00    +0.023 HD
ATOM     71  H   UNL     1     158.125 168.344 182.795  0.00  0.00    +0.023 HD
ATOM     72  H   UNL     1     156.445 167.821 182.987  0.00  0.00    +0.023 HD
ENDBRANCH  67  69
BRANCH  67  73
ATOM     73  C   UNL     1     157.698 169.314 185.174  0.00  0.00    -0.046 C 
ATOM     74  H   UNL     1     156.697 169.754 185.077  0.00  0.00    +0.027 HD
ATOM     75  H   UNL     1     157.995 169.455 186.221  0.00  0.00    +0.027 HD
BRANCH  73  76
ATOM     76  C   UNL     1     158.637 170.082 184.238  0.00  0.00    -0.026 C 
ATOM     77  H   UNL     1     159.578 170.328 184.742  0.00  0.00    +0.029 HD
ATOM     78  H   UNL     1     158.915 169.447 183.386  0.00  0.00    +0.029 HD
BRANCH  76  83
ATOM     79  C   UNL     1     158.574 173.634 183.201  0.00  0.00    +0.059 C 
ATOM     80  C   UNL     1     157.062 173.798 183.011  0.00  0.00    -0.000 C 
ATOM     81  C   UNL     1     156.318 173.187 184.194  0.00  0.00    +0.063 C 
ATOM     82  C   UNL     1     156.656 171.694 184.320  0.00  0.00    -0.000 C 
ATOM     83  C   UNL     1     158.005 171.360 183.679  0.00  0.00    +0.061 C 
ATOM     84  O   UNL     1     158.916 172.439 183.916  0.00  0.00    -0.373 OA
ATOM     85  H   UNL     1     158.936 174.463 183.819  0.00  0.00    +0.059 HD
ATOM     86  H   UNL     1     156.800 174.856 182.889  0.00  0.00    +0.032 HD
ATOM     87  H   UNL     1     156.723 173.308 182.087  0.00  0.00    +0.032 HD
ATOM     88  H   UNL     1     156.624 173.716 185.107  0.00  0.00    +0.060 HD
ATOM     89  H   UNL     1     156.674 171.443 185.392  0.00  0.00    +0.032 HD
ATOM     90  H   UNL     1     155.870 171.065 183.879  0.00  0.00    +0.032 HD
ATOM     91  H   UNL     1     157.885 171.233 182.593  0.00  0.00    +0.060 HD
BRANCH  79  92
ATOM     92  C   UNL     1     159.325 173.669 181.878  0.00  0.00    -0.039 C 
ATOM     93  H   UNL     1     159.365 172.677 181.418  0.00  0.00    +0.025 HD
ATOM     94  H   UNL     1     158.833 174.360 181.186  0.00  0.00    +0.025 HD
ATOM     95  H   UNL     1     160.349 174.036 182.010  0.00  0.00    +0.025 HD
ENDBRANCH  79  92
BRANCH  81  96
ATOM     96  O   UNL     1     154.914 173.381 183.987  0.00  0.00    -0.380 OA
BRANCH  96  97
ATOM     97  C   UNL     1     154.497 173.052 182.668  0.00  0.00    +0.037 C 
ATOM     98  H   UNL     1     155.317 173.286 181.985  0.00  0.00    +0.052 HD
ATOM     99  H   UNL     1     153.625 173.647 182.380  0.00  0.00    +0.052 HD
ATOM    100  H   UNL     1     154.272 171.985 182.583  0.00  0.00    +0.052 HD
ENDBRANCH  96  97
ENDBRANCH  81  96
ENDBRANCH  76  83
ENDBRANCH  73  76
ENDBRANCH  67  73
ENDBRANCH  65  67
BRANCH  65 101
ATOM    101  O   UNL     1     155.519 168.013 186.073  0.00  0.00    -0.391 OA
ATOM    102  H   UNL     1     156.008 168.718 186.529  0.00  0.00    +0.210 HD
ENDBRANCH  65 101
ENDBRANCH  59  65
ENDBRANCH   1  59
BRANCH  19 103
ATOM    103  O   UNL     1     150.207 169.139 191.350  0.00  0.00    -0.385 OA
ATOM    104  H   UNL     1     149.300 169.332 191.645  0.00  0.00    +0.210 HD
ENDBRANCH  19 103
BRANCH  18 105
ATOM    105  O   UNL     1     149.634 165.664 192.389  0.00  0.00    -0.377 OA
BRANCH 105 106
ATOM    106  C   UNL     1     149.064 165.895 193.672  0.00  0.00    +0.037 C 
ATOM    107  H   UNL     1     148.245 166.618 193.595  0.00  0.00    +0.052 HD
ATOM    108  H   UNL     1     149.814 166.252 194.381  0.00  0.00    +0.052 HD
ATOM    109  H   UNL     1     148.657 164.950 194.044  0.00  0.00    +0.052 HD
ENDBRANCH 105 106
ENDBRANCH  18 105
BRANCH   9 110
ATOM    110  O   UNL     1     150.757 164.237 184.315  0.00  0.00    -0.377 OA
BRANCH 110 111
ATOM    111  C   UNL     1     149.566 164.312 183.539  0.00  0.00    +0.037 C 
ATOM    112  H   UNL     1     149.659 165.157 182.849  0.00  0.00    +0.052 HD
ATOM    113  H   UNL     1     148.698 164.491 184.180  0.00  0.00    +0.052 HD
ATOM    114  H   UNL     1     149.423 163.406 182.947  0.00  0.00    +0.052 HD
ENDBRANCH 110 111
ENDBRANCH   9 110
BRANCH   5 115
ATOM    115  O   UNL     1     151.164 161.297 185.007  0.00  0.00    -0.377 OA
BRANCH 115 116
ATOM    116  C   UNL     1     152.070 160.962 183.965  0.00  0.00    +0.037 C 
ATOM    117  H   UNL     1     152.280 161.867 183.394  0.00  0.00    +0.052 HD
ATOM    118  H   UNL     1     153.009 160.577 184.366  0.00  0.00    +0.052 HD
ATOM    119  H   UNL     1     151.620 160.226 183.292  0.00  0.00    +0.052 HD
ENDBRANCH 115 116
ENDBRANCH   5 115
BRANCH   3 120
ATOM    120  O   UNL     1     154.673 162.215 187.285  0.00  0.00    -0.379 OA
BRANCH 120 121
ATOM    121  C   UNL     1     154.282 162.042 188.640  0.00  0.00    +0.037 C 
ATOM    122  H   UNL     1     154.451 162.988 189.167  0.00  0.00    +0.052 HD
ATOM    123  H   UNL     1     154.879 161.264 189.128  0.00  0.00    +0.052 HD
ATOM    124  H   UNL     1     153.217 161.798 188.708  0.00  0.00    +0.052 HD
ENDBRANCH 120 121
ENDBRANCH   3 120
TORSDOF 23
ENDMDL
MODEL 6
REMARK VINA RESULT:      -5.9      2.178      3.400
REMARK  Name = Lobophorolide_conf1
REMARK  23 active torsions:
REMARK  status: ('A' for Active; 'I' for Inactive)
REMARK    1  A    between atoms: C_1  and  C_2
REMARK    2  A    between atoms: C_4  and  O_53
REMARK    3  A    between atoms: C_6  and  C_8
REMARK    4  A    between atoms: C_8  and  C_9
REMARK    5  A    between atoms: C_9  and  C_10
REMARK    6  A    between atoms: C_10  and  C_11
REMARK    7  A    between atoms: C_10  and  C_12
REMARK    8  A    between atoms: C_12  and  C_13
REMARK    9  A    between atoms: C_12  and  O_52
REMARK   10  A    between atoms: C_13  and  C_14
REMARK   11  A    between atoms: C_13  and  C_15
REMARK   12  A    between atoms: C_16  and  C_51
REMARK   13  A    between atoms: C_17  and  O_49
REMARK   14  A    between atoms: C_19  and  O_47
REMARK   15  A    between atoms: C_23  and  O_45
REMARK   16  A    between atoms: C_32  and  O_43
REMARK   17  A    between atoms: C_33  and  O_42
REMARK   18  A    between atoms: C_35  and  C_41
REMARK   19  A    between atoms: O_43  and  C_44
REMARK   20  A    between atoms: O_45  and  C_46
REMARK   21  A    between atoms: O_47  and  C_48
REMARK   22  A    between atoms: O_49  and  C_50
REMARK   23  A    between atoms: O_53  and  C_54
REMARK                            x       y       z     vdW  Elec       q    Type
REMARK                         _______ _______ _______ _____ _____    ______ ____
ROOT
ATOM      1  C   UNL     1     152.592 165.000 188.921  0.00  0.00    +0.113 C 
ATOM      2  C   UNL     1     151.551 164.025 188.285  0.00  0.00    +0.020 C 
ATOM      3  C   UNL     1     152.154 163.289 187.027  0.00  0.00    +0.067 C 
ATOM      4  C   UNL     1     151.162 162.257 186.453  0.00  0.00    +0.003 C 
ATOM      5  C   UNL     1     151.794 161.183 185.558  0.00  0.00    +0.094 C 
ATOM      6  C   UNL     1     152.640 160.106 186.250  0.00  0.00    +0.145 C 
ATOM      7  C   UNL     1     153.484 159.276 185.290  0.00  0.00    +0.083 C 
ATOM      8  O   UNL     1     154.062 160.309 186.094  0.00  0.00    -0.363 OA
ATOM      9  C   UNL     1     152.260 159.594 187.645  0.00  0.00    +0.094 C 
ATOM     10  C   UNL     1     152.785 158.195 188.029  0.00  0.00    +0.003 C 
ATOM     11  C   UNL     1     154.282 158.022 188.323  0.00  0.00    +0.065 C 
ATOM     12  C   UNL     1     154.507 156.600 188.893  0.00  0.00    -0.008 C 
ATOM     13  C   UNL     1     155.818 156.455 189.596  0.00  0.00    -0.083 C 
ATOM     14  C   UNL     1     156.555 157.530 189.900  0.00  0.00    -0.059 C 
ATOM     15  C   UNL     1     156.144 158.939 189.558  0.00  0.00    +0.080 C 
ATOM     16  O   UNL     1     154.728 159.010 189.258  0.00  0.00    -0.369 OA
ATOM     17  C   UNL     1     156.975 159.529 188.407  0.00  0.00    +0.006 C 
ATOM     18  C   UNL     1     158.494 159.656 188.657  0.00  0.00    +0.090 C 
ATOM     19  C   UNL     1     158.907 160.590 189.834  0.00  0.00    +0.100 C 
ATOM     20  C   UNL     1     158.096 161.852 189.900  0.00  0.00    -0.051 C 
ATOM     21  C   UNL     1     158.325 163.017 189.264  0.00  0.00    -0.052 C 
ATOM     22  C   UNL     1     157.321 164.070 189.285  0.00  0.00    -0.052 C 
ATOM     23  C   UNL     1     156.027 163.811 189.058  0.00  0.00    +0.023 C 
ATOM     24  C   UNL     1     154.999 164.864 189.021  0.00  0.00    +0.332 C 
ATOM     25  O   UNL     1     155.199 166.061 188.938  0.00  0.00    -0.246 OA
ATOM     26  O   UNL     1     153.807 164.224 189.073  0.00  0.00    -0.458 OA
ATOM     27  H   UNL     1     152.797 165.790 188.188  0.00  0.00    +0.074 HD
ATOM     28  H   UNL     1     151.337 163.228 189.005  0.00  0.00    +0.036 HD
ATOM     29  H   UNL     1     153.074 162.769 187.325  0.00  0.00    +0.060 HD
ATOM     30  H   UNL     1     150.419 162.792 185.848  0.00  0.00    +0.032 HD
ATOM     31  H   UNL     1     150.592 161.796 187.260  0.00  0.00    +0.032 HD
ATOM     32  H   UNL     1     152.437 161.688 184.825  0.00  0.00    +0.063 HD
ATOM     33  H   UNL     1     153.722 158.246 185.507  0.00  0.00    +0.059 HD
ATOM     34  H   UNL     1     153.394 159.461 184.225  0.00  0.00    +0.059 HD
ATOM     35  H   UNL     1     152.596 160.340 188.376  0.00  0.00    +0.063 HD
ATOM     36  H   UNL     1     152.251 157.888 188.937  0.00  0.00    +0.032 HD
ATOM     37  H   UNL     1     152.473 157.466 187.269  0.00  0.00    +0.032 HD
ATOM     38  H   UNL     1     154.855 158.125 187.399  0.00  0.00    +0.060 HD
ATOM     39  H   UNL     1     153.733 156.349 189.629  0.00  0.00    +0.033 HD
ATOM     40  H   UNL     1     154.435 155.866 188.081  0.00  0.00    +0.033 HD
ATOM     41  H   UNL     1     156.147 155.464 189.896  0.00  0.00    +0.057 HD
ATOM     42  H   UNL     1     157.488 157.409 190.447  0.00  0.00    +0.059 HD
ATOM     43  H   UNL     1     156.261 159.555 190.455  0.00  0.00    +0.064 HD
ATOM     44  H   UNL     1     156.845 158.918 187.503  0.00  0.00    +0.032 HD
ATOM     45  H   UNL     1     156.554 160.500 188.112  0.00  0.00    +0.032 HD
ATOM     46  H   UNL     1     158.884 158.649 188.852  0.00  0.00    +0.063 HD
ATOM     47  H   UNL     1     159.971 160.829 189.769  0.00  0.00    +0.066 HD
ATOM     48  H   UNL     1     157.184 161.750 190.493  0.00  0.00    +0.060 HD
ATOM     49  H   UNL     1     157.664 165.088 189.443  0.00  0.00    +0.062 HD
ATOM     50  H   UNL     1     155.673 162.805 188.862  0.00  0.00    +0.069 HD
ENDROOT
BRANCH  21  51
ATOM     51  C   UNL     1     159.530 163.328 188.421  0.00  0.00    -0.040 C 
ATOM     52  H   UNL     1     160.269 162.526 188.503  0.00  0.00    +0.028 HD
ATOM     53  H   UNL     1     160.024 164.259 188.700  0.00  0.00    +0.028 HD
ATOM     54  H   UNL     1     159.242 163.423 187.370  0.00  0.00    +0.028 HD
ENDBRANCH  21  51
BRANCH   2  55
ATOM     55  C   UNL     1     150.240 164.738 187.933  0.00  0.00    -0.057 C 
ATOM     56  H   UNL     1     149.369 164.122 188.181  0.00  0.00    +0.023 HD
ATOM     57  H   UNL     1     150.198 164.987 186.877  0.00  0.00    +0.023 HD
ATOM     58  H   UNL     1     150.132 165.693 188.452  0.00  0.00    +0.023 HD
ENDBRANCH   2  55
BRANCH   1  59
ATOM     59  C   UNL     1     152.266 165.676 190.297  0.00  0.00    +0.020 C 
ATOM     60  H   UNL     1     151.275 165.306 190.580  0.00  0.00    +0.036 HD
BRANCH  59  61
ATOM     61  C   UNL     1     153.180 165.170 191.421  0.00  0.00    -0.057 C 
ATOM     62  H   UNL     1     153.303 165.930 192.198  0.00  0.00    +0.023 HD
ATOM     63  H   UNL     1     152.828 164.253 191.889  0.00  0.00    +0.023 HD
ATOM     64  H   UNL     1     154.176 164.954 191.019  0.00  0.00    +0.023 HD
ENDBRANCH  59  61
BRANCH  59  65
ATOM     65  C   UNL     1     152.157 167.229 190.321  0.00  0.00    +0.064 C 
ATOM     66  H   UNL     1     152.855 167.605 191.082  0.00  0.00    +0.060 HD
BRANCH  65  67
ATOM     67  C   UNL     1     150.757 167.795 190.688  0.00  0.00    -0.017 C 
ATOM     68  H   UNL     1     150.320 168.291 189.818  0.00  0.00    +0.032 HD
BRANCH  67  69
ATOM     69  C   UNL     1     149.808 166.664 191.112  0.00  0.00    -0.060 C 
ATOM     70  H   UNL     1     149.870 165.823 190.410  0.00  0.00    +0.023 HD
ATOM     71  H   UNL     1     148.770 167.012 191.131  0.00  0.00    +0.023 HD
ATOM     72  H   UNL     1     150.050 166.266 192.098  0.00  0.00    +0.023 HD
ENDBRANCH  67  69
BRANCH  67  73
ATOM     73  C   UNL     1     150.797 168.848 191.827  0.00  0.00    -0.046 C 
ATOM     74  H   UNL     1     151.404 168.455 192.653  0.00  0.00    +0.027 HD
ATOM     75  H   UNL     1     151.302 169.757 191.479  0.00  0.00    +0.027 HD
BRANCH  73  76
ATOM     76  C   UNL     1     149.409 169.180 192.386  0.00  0.00    -0.026 C 
ATOM     77  H   UNL     1     148.759 168.299 192.370  0.00  0.00    +0.029 HD
ATOM     78  H   UNL     1     149.493 169.466 193.443  0.00  0.00    +0.029 HD
BRANCH  76  83
ATOM     79  C   UNL     1     147.582 172.385 192.093  0.00  0.00    +0.059 C 
ATOM     80  C   UNL     1     147.229 172.320 190.604  0.00  0.00    -0.000 C 
ATOM     81  C   UNL     1     146.692 170.936 190.254  0.00  0.00    +0.063 C 
ATOM     82  C   UNL     1     147.742 169.863 190.574  0.00  0.00    -0.000 C 
ATOM     83  C   UNL     1     148.730 170.334 191.644  0.00  0.00    +0.061 C 
ATOM     84  O   UNL     1     148.030 171.125 192.612  0.00  0.00    -0.373 OA
ATOM     85  H   UNL     1     146.673 172.629 192.654  0.00  0.00    +0.059 HD
ATOM     86  H   UNL     1     146.502 173.099 190.344  0.00  0.00    +0.032 HD
ATOM     87  H   UNL     1     148.109 172.528 189.978  0.00  0.00    +0.032 HD
ATOM     88  H   UNL     1     145.783 170.757 190.845  0.00  0.00    +0.060 HD
ATOM     89  H   UNL     1     147.207 168.965 190.922  0.00  0.00    +0.032 HD
ATOM     90  H   UNL     1     148.290 169.555 189.674  0.00  0.00    +0.032 HD
ATOM     91  H   UNL     1     149.515 170.953 191.186  0.00  0.00    +0.060 HD
BRANCH  79  92
ATOM     92  C   UNL     1     148.621 173.457 192.392  0.00  0.00    -0.039 C 
ATOM     93  H   UNL     1     149.485 173.035 192.914  0.00  0.00    +0.025 HD
ATOM     94  H   UNL     1     148.961 173.919 191.459  0.00  0.00    +0.025 HD
ATOM     95  H   UNL     1     148.199 174.261 193.003  0.00  0.00    +0.025 HD
ENDBRANCH  79  92
BRANCH  81  96
ATOM     96  O   UNL     1     146.355 170.927 188.861  0.00  0.00    -0.380 OA
BRANCH  96  97
ATOM     97  C   UNL     1     146.689 169.704 188.217  0.00  0.00    +0.037 C 
ATOM     98  H   UNL     1     147.759 169.722 187.992  0.00  0.00    +0.052 HD
ATOM     99  H   UNL     1     146.139 169.600 187.278  0.00  0.00    +0.052 HD
ATOM    100  H   UNL     1     146.490 168.850 188.871  0.00  0.00    +0.052 HD
ENDBRANCH  96  97
ENDBRANCH  81  96
ENDBRANCH  76  83
ENDBRANCH  73  76
ENDBRANCH  67  73
ENDBRANCH  65  67
BRANCH  65 101
ATOM    101  O   UNL     1     152.596 167.779 189.086  0.00  0.00    -0.391 OA
ATOM    102  H   UNL     1     152.320 168.711 189.058  0.00  0.00    +0.210 HD
ENDBRANCH  65 101
ENDBRANCH  59  65
ENDBRANCH   1  59
BRANCH  19 103
ATOM    103  O   UNL     1     158.713 159.903 191.073  0.00  0.00    -0.385 OA
ATOM    104  H   UNL     1     158.764 160.568 191.781  0.00  0.00    +0.210 HD
ENDBRANCH  19 103
BRANCH  18 105
ATOM    105  O   UNL     1     159.066 160.138 187.425  0.00  0.00    -0.377 OA
BRANCH 105 106
ATOM    106  C   UNL     1     158.093 160.412 186.423  0.00  0.00    +0.037 C 
ATOM    107  H   UNL     1     157.621 159.481 186.093  0.00  0.00    +0.052 HD
ATOM    108  H   UNL     1     158.538 160.930 185.570  0.00  0.00    +0.052 HD
ATOM    109  H   UNL     1     157.323 161.055 186.857  0.00  0.00    +0.052 HD
ENDBRANCH 105 106
ENDBRANCH  18 105
BRANCH   9 110
ATOM    110  O   UNL     1     150.821 159.489 187.701  0.00  0.00    -0.377 OA
BRANCH 110 111
ATOM    111  C   UNL     1     150.332 158.166 187.506  0.00  0.00    +0.037 C 
ATOM    112  H   UNL     1     149.463 158.216 186.842  0.00  0.00    +0.052 HD
ATOM    113  H   UNL     1     150.009 157.731 188.456  0.00  0.00    +0.052 HD
ATOM    114  H   UNL     1     151.084 157.532 187.032  0.00  0.00    +0.052 HD
ENDBRANCH 110 111
ENDBRANCH   9 110
BRANCH   5 115
ATOM    115  O   UNL     1     150.758 160.497 184.826  0.00  0.00    -0.377 OA
BRANCH 115 116
ATOM    116  C   UNL     1     149.506 161.167 184.866  0.00  0.00    +0.037 C 
ATOM    117  H   UNL     1     149.568 162.038 184.212  0.00  0.00    +0.052 HD
ATOM    118  H   UNL     1     148.700 160.522 184.511  0.00  0.00    +0.052 HD
ATOM    119  H   UNL     1     149.290 161.512 185.882  0.00  0.00    +0.052 HD
ENDBRANCH 115 116
ENDBRANCH   5 115
BRANCH   3 120
ATOM    120  O   UNL     1     152.413 164.268 186.006  0.00  0.00    -0.379 OA
BRANCH 120 121
ATOM    121  C   UNL     1     153.747 164.243 185.519  0.00  0.00    +0.037 C 
ATOM    122  H   UNL     1     154.289 163.453 186.050  0.00  0.00    +0.052 HD
ATOM    123  H   UNL     1     154.254 165.196 185.707  0.00  0.00    +0.052 HD
ATOM    124  H   UNL     1     153.765 164.012 184.448  0.00  0.00    +0.052 HD
ENDBRANCH 120 121
ENDBRANCH   3 120
TORSDOF 23
ENDMDL
MODEL 7
REMARK VINA RESULT:      -5.8      1.461      2.221
REMARK  Name = Lobophorolide_conf1
REMARK  23 active torsions:
REMARK  status: ('A' for Active; 'I' for Inactive)
REMARK    1  A    between atoms: C_1  and  C_2
REMARK    2  A    between atoms: C_4  and  O_53
REMARK    3  A    between atoms: C_6  and  C_8
REMARK    4  A    between atoms: C_8  and  C_9
REMARK    5  A    between atoms: C_9  and  C_10
REMARK    6  A    between atoms: C_10  and  C_11
REMARK    7  A    between atoms: C_10  and  C_12
REMARK    8  A    between atoms: C_12  and  C_13
REMARK    9  A    between atoms: C_12  and  O_52
REMARK   10  A    between atoms: C_13  and  C_14
REMARK   11  A    between atoms: C_13  and  C_15
REMARK   12  A    between atoms: C_16  and  C_51
REMARK   13  A    between atoms: C_17  and  O_49
REMARK   14  A    between atoms: C_19  and  O_47
REMARK   15  A    between atoms: C_23  and  O_45
REMARK   16  A    between atoms: C_32  and  O_43
REMARK   17  A    between atoms: C_33  and  O_42
REMARK   18  A    between atoms: C_35  and  C_41
REMARK   19  A    between atoms: O_43  and  C_44
REMARK   20  A    between atoms: O_45  and  C_46
REMARK   21  A    between atoms: O_47  and  C_48
REMARK   22  A    between atoms: O_49  and  C_50
REMARK   23  A    between atoms: O_53  and  C_54
REMARK                            x       y       z     vdW  Elec       q    Type
REMARK                         _______ _______ _______ _____ _____    ______ ____
ROOT
ATOM      1  C   UNL     1     153.404 166.088 188.967  0.00  0.00    +0.113 C 
ATOM      2  C   UNL     1     152.293 165.474 188.057  0.00  0.00    +0.020 C 
ATOM      3  C   UNL     1     152.917 164.751 186.803  0.00  0.00    +0.067 C 
ATOM      4  C   UNL     1     151.830 164.064 185.953  0.00  0.00    +0.003 C 
ATOM      5  C   UNL     1     152.343 162.968 185.009  0.00  0.00    +0.094 C 
ATOM      6  C   UNL     1     152.793 161.649 185.649  0.00  0.00    +0.145 C 
ATOM      7  C   UNL     1     153.577 160.743 184.707  0.00  0.00    +0.083 C 
ATOM      8  O   UNL     1     154.229 161.509 185.724  0.00  0.00    -0.363 OA
ATOM      9  C   UNL     1     152.074 161.100 186.889  0.00  0.00    +0.094 C 
ATOM     10  C   UNL     1     152.195 159.582 187.137  0.00  0.00    +0.003 C 
ATOM     11  C   UNL     1     153.542 159.014 187.608  0.00  0.00    +0.065 C 
ATOM     12  C   UNL     1     153.338 157.528 187.993  0.00  0.00    -0.008 C 
ATOM     13  C   UNL     1     154.442 156.989 188.843  0.00  0.00    -0.083 C 
ATOM     14  C   UNL     1     155.342 157.810 189.399  0.00  0.00    -0.059 C 
ATOM     15  C   UNL     1     155.325 159.305 189.210  0.00  0.00    +0.080 C 
ATOM     16  O   UNL     1     154.034 159.756 188.729  0.00  0.00    -0.369 OA
ATOM     17  C   UNL     1     156.451 159.792 188.284  0.00  0.00    +0.006 C 
ATOM     18  C   UNL     1     157.895 159.512 188.758  0.00  0.00    +0.090 C 
ATOM     19  C   UNL     1     158.303 160.184 190.104  0.00  0.00    +0.100 C 
ATOM     20  C   UNL     1     157.801 161.592 190.239  0.00  0.00    -0.051 C 
ATOM     21  C   UNL     1     158.393 162.726 189.815  0.00  0.00    -0.052 C 
ATOM     22  C   UNL     1     157.666 163.985 189.848  0.00  0.00    -0.052 C 
ATOM     23  C   UNL     1     156.404 164.080 189.407  0.00  0.00    +0.023 C 
ATOM     24  C   UNL     1     155.664 165.352 189.380  0.00  0.00    +0.332 C 
ATOM     25  O   UNL     1     156.142 166.465 189.499  0.00  0.00    -0.246 OA
ATOM     26  O   UNL     1     154.367 165.025 189.173  0.00  0.00    -0.458 OA
ATOM     27  H   UNL     1     153.904 166.877 188.391  0.00  0.00    +0.074 HD
ATOM     28  H   UNL     1     151.783 164.683 188.618  0.00  0.00    +0.036 HD
ATOM     29  H   UNL     1     153.631 163.991 187.148  0.00  0.00    +0.060 HD
ATOM     30  H   UNL     1     151.341 164.827 185.334  0.00  0.00    +0.032 HD
ATOM     31  H   UNL     1     151.040 163.674 186.597  0.00  0.00    +0.032 HD
ATOM     32  H   UNL     1     153.199 163.374 184.454  0.00  0.00    +0.063 HD
ATOM     33  H   UNL     1     153.534 159.669 184.804  0.00  0.00    +0.059 HD
ATOM     34  H   UNL     1     153.714 161.057 183.678  0.00  0.00    +0.059 HD
ATOM     35  H   UNL     1     152.442 161.658 187.760  0.00  0.00    +0.063 HD
ATOM     36  H   UNL     1     151.459 159.321 187.907  0.00  0.00    +0.032 HD
ATOM     37  H   UNL     1     151.859 159.038 186.243  0.00  0.00    +0.032 HD
ATOM     38  H   UNL     1     154.271 159.071 186.798  0.00  0.00    +0.060 HD
ATOM     39  H   UNL     1     152.413 157.399 188.569  0.00  0.00    +0.033 HD
ATOM     40  H   UNL     1     153.240 156.926 187.081  0.00  0.00    +0.033 HD
ATOM     41  H   UNL     1     154.482 155.922 189.040  0.00  0.00    +0.057 HD
ATOM     42  H   UNL     1     156.116 157.405 190.047  0.00  0.00    +0.059 HD
ATOM     43  H   UNL     1     155.425 159.774 190.195  0.00  0.00    +0.064 HD
ATOM     44  H   UNL     1     156.343 159.332 187.292  0.00  0.00    +0.032 HD
ATOM     45  H   UNL     1     156.319 160.862 188.076  0.00  0.00    +0.032 HD
ATOM     46  H   UNL     1     158.007 158.425 188.859  0.00  0.00    +0.063 HD
ATOM     47  H   UNL     1     159.389 160.157 190.223  0.00  0.00    +0.066 HD
ATOM     48  H   UNL     1     156.802 161.656 190.677  0.00  0.00    +0.060 HD
ATOM     49  H   UNL     1     158.199 164.865 190.198  0.00  0.00    +0.062 HD
ATOM     50  H   UNL     1     155.870 163.219 189.021  0.00  0.00    +0.069 HD
ENDROOT
BRANCH  21  51
ATOM     51  C   UNL     1     159.762 162.817 189.202  0.00  0.00    -0.040 C 
ATOM     52  H   UNL     1     159.792 162.275 188.253  0.00  0.00    +0.028 HD
ATOM     53  H   UNL     1     160.548 162.407 189.838  0.00  0.00    +0.028 HD
ATOM     54  H   UNL     1     160.021 163.862 189.009  0.00  0.00    +0.028 HD
ENDBRANCH  21  51
BRANCH   2  55
ATOM     55  C   UNL     1     151.257 166.522 187.633  0.00  0.00    -0.057 C 
ATOM     56  H   UNL     1     150.614 166.813 188.471  0.00  0.00    +0.023 HD
ATOM     57  H   UNL     1     150.629 166.152 186.828  0.00  0.00    +0.023 HD
ATOM     58  H   UNL     1     151.719 167.429 187.236  0.00  0.00    +0.023 HD
ENDBRANCH   2  55
BRANCH   1  59
ATOM     59  C   UNL     1     153.011 166.673 190.366  0.00  0.00    +0.020 C 
ATOM     60  H   UNL     1     153.917 167.155 190.750  0.00  0.00    +0.036 HD
BRANCH  59  61
ATOM     61  C   UNL     1     152.006 167.826 190.250  0.00  0.00    -0.057 C 
ATOM     62  H   UNL     1     152.518 168.775 190.062  0.00  0.00    +0.023 HD
ATOM     63  H   UNL     1     151.261 167.678 189.471  0.00  0.00    +0.023 HD
ATOM     64  H   UNL     1     151.457 167.936 191.191  0.00  0.00    +0.023 HD
ENDBRANCH  59  61
BRANCH  59  65
ATOM     65  C   UNL     1     152.577 165.661 191.467  0.00  0.00    +0.064 C 
ATOM     66  H   UNL     1     151.489 165.749 191.595  0.00  0.00    +0.060 HD
BRANCH  65  67
ATOM     67  C   UNL     1     153.206 165.887 192.869  0.00  0.00    -0.017 C 
ATOM     68  H   UNL     1     153.682 164.966 193.213  0.00  0.00    +0.032 HD
BRANCH  67  69
ATOM     69  C   UNL     1     154.283 166.980 192.811  0.00  0.00    -0.060 C 
ATOM     70  H   UNL     1     154.350 167.407 191.802  0.00  0.00    +0.023 HD
ATOM     71  H   UNL     1     155.267 166.574 193.071  0.00  0.00    +0.023 HD
ATOM     72  H   UNL     1     154.071 167.811 193.487  0.00  0.00    +0.023 HD
ENDBRANCH  67  69
BRANCH  67  73
ATOM     73  C   UNL     1     152.170 166.284 193.953  0.00  0.00    -0.046 C 
ATOM     74  H   UNL     1     152.649 166.229 194.940  0.00  0.00    +0.027 HD
ATOM     75  H   UNL     1     151.866 167.328 193.817  0.00  0.00    +0.027 HD
BRANCH  73  76
ATOM     76  C   UNL     1     150.946 165.362 193.979  0.00  0.00    -0.026 C 
ATOM     77  H   UNL     1     150.887 164.763 193.065  0.00  0.00    +0.029 HD
ATOM     78  H   UNL     1     151.041 164.640 194.800  0.00  0.00    +0.029 HD
BRANCH  76  83
ATOM     79  C   UNL     1     147.442 165.801 195.084  0.00  0.00    +0.059 C 
ATOM     80  C   UNL     1     147.138 167.132 194.388  0.00  0.00    -0.000 C 
ATOM     81  C   UNL     1     147.635 167.092 192.946  0.00  0.00    +0.063 C 
ATOM     82  C   UNL     1     149.148 166.834 192.913  0.00  0.00    -0.000 C 
ATOM     83  C   UNL     1     149.632 166.124 194.180  0.00  0.00    +0.061 C 
ATOM     84  O   UNL     1     148.639 165.180 194.597  0.00  0.00    -0.373 OA
ATOM     85  H   UNL     1     146.631 165.100 194.856  0.00  0.00    +0.059 HD
ATOM     86  H   UNL     1     146.065 167.354 194.426  0.00  0.00    +0.032 HD
ATOM     87  H   UNL     1     147.624 167.971 194.908  0.00  0.00    +0.032 HD
ATOM     88  H   UNL     1     147.108 166.285 192.420  0.00  0.00    +0.060 HD
ATOM     89  H   UNL     1     149.364 166.215 192.028  0.00  0.00    +0.032 HD
ATOM     90  H   UNL     1     149.713 167.765 192.772  0.00  0.00    +0.032 HD
ATOM     91  H   UNL     1     149.784 166.855 194.987  0.00  0.00    +0.060 HD
BRANCH  79  92
ATOM     92  C   UNL     1     147.523 165.950 196.597  0.00  0.00    -0.039 C 
ATOM     93  H   UNL     1     147.180 166.939 196.916  0.00  0.00    +0.025 HD
ATOM     94  H   UNL     1     146.905 165.187 197.082  0.00  0.00    +0.025 HD
ATOM     95  H   UNL     1     148.546 165.799 196.958  0.00  0.00    +0.025 HD
ENDBRANCH  79  92
BRANCH  81  96
ATOM     96  O   UNL     1     147.313 168.344 192.329  0.00  0.00    -0.380 OA
BRANCH  96  97
ATOM     97  C   UNL     1     148.464 169.120 192.015  0.00  0.00    +0.037 C 
ATOM     98  H   UNL     1     149.021 168.597 191.234  0.00  0.00    +0.052 HD
ATOM     99  H   UNL     1     149.109 169.225 192.892  0.00  0.00    +0.052 HD
ATOM    100  H   UNL     1     148.179 170.106 191.633  0.00  0.00    +0.052 HD
ENDBRANCH  96  97
ENDBRANCH  81  96
ENDBRANCH  76  83
ENDBRANCH  73  76
ENDBRANCH  67  73
ENDBRANCH  65  67
BRANCH  65 101
ATOM    101  O   UNL     1     152.811 164.326 191.037  0.00  0.00    -0.391 OA
ATOM    102  H   UNL     1     153.138 163.819 191.799  0.00  0.00    +0.210 HD
ENDBRANCH  65 101
ENDBRANCH  59  65
ENDBRANCH   1  59
BRANCH  19 103
ATOM    103  O   UNL     1     157.750 159.438 191.192  0.00  0.00    -0.385 OA
ATOM    104  H   UNL     1     158.477 159.247 191.808  0.00  0.00    +0.210 HD
ENDBRANCH  19 103
BRANCH  18 105
ATOM    105  O   UNL     1     158.762 159.967 187.701  0.00  0.00    -0.377 OA
BRANCH 105 106
ATOM    106  C   UNL     1     158.061 160.573 186.622  0.00  0.00    +0.037 C 
ATOM    107  H   UNL     1     157.599 159.805 185.994  0.00  0.00    +0.052 HD
ATOM    108  H   UNL     1     158.725 161.199 186.020  0.00  0.00    +0.052 HD
ATOM    109  H   UNL     1     157.270 161.204 187.036  0.00  0.00    +0.052 HD
ENDBRANCH 105 106
ENDBRANCH  18 105
BRANCH   9 110
ATOM    110  O   UNL     1     150.661 161.348 186.728  0.00  0.00    -0.377 OA
BRANCH 110 111
ATOM    111  C   UNL     1     149.854 160.757 187.741  0.00  0.00    +0.037 C 
ATOM    112  H   UNL     1     150.357 159.851 188.095  0.00  0.00    +0.052 HD
ATOM    113  H   UNL     1     148.880 160.468 187.337  0.00  0.00    +0.052 HD
ATOM    114  H   UNL     1     149.730 161.430 188.592  0.00  0.00    +0.052 HD
ENDBRANCH 110 111
ENDBRANCH   9 110
BRANCH   5 115
ATOM    115  O   UNL     1     151.319 162.642 184.049  0.00  0.00    -0.377 OA
BRANCH 115 116
ATOM    116  C   UNL     1     151.448 163.355 182.827  0.00  0.00    +0.037 C 
ATOM    117  H   UNL     1     151.183 164.397 183.014  0.00  0.00    +0.052 HD
ATOM    118  H   UNL     1     152.471 163.317 182.452  0.00  0.00    +0.052 HD
ATOM    119  H   UNL     1     150.759 162.953 182.077  0.00  0.00    +0.052 HD
ENDBRANCH 115 116
ENDBRANCH   5 115
BRANCH   3 120
ATOM    120  O   UNL     1     153.561 165.739 185.979  0.00  0.00    -0.379 OA
BRANCH 120 121
ATOM    121  C   UNL     1     154.916 165.434 185.679  0.00  0.00    +0.037 C 
ATOM    122  H   UNL     1     155.525 165.689 186.555  0.00  0.00    +0.052 HD
ATOM    123  H   UNL     1     155.274 166.022 184.827  0.00  0.00    +0.052 HD
ATOM    124  H   UNL     1     155.037 164.364 185.477  0.00  0.00    +0.052 HD
ENDBRANCH 120 121
ENDBRANCH   3 120
TORSDOF 23
ENDMDL
MODEL 8
REMARK VINA RESULT:      -5.8      4.044      8.812
REMARK  Name = Lobophorolide_conf1
REMARK  23 active torsions:
REMARK  status: ('A' for Active; 'I' for Inactive)
REMARK    1  A    between atoms: C_1  and  C_2
REMARK    2  A    between atoms: C_4  and  O_53
REMARK    3  A    between atoms: C_6  and  C_8
REMARK    4  A    between atoms: C_8  and  C_9
REMARK    5  A    between atoms: C_9  and  C_10
REMARK    6  A    between atoms: C_10  and  C_11
REMARK    7  A    between atoms: C_10  and  C_12
REMARK    8  A    between atoms: C_12  and  C_13
REMARK    9  A    between atoms: C_12  and  O_52
REMARK   10  A    between atoms: C_13  and  C_14
REMARK   11  A    between atoms: C_13  and  C_15
REMARK   12  A    between atoms: C_16  and  C_51
REMARK   13  A    between atoms: C_17  and  O_49
REMARK   14  A    between atoms: C_19  and  O_47
REMARK   15  A    between atoms: C_23  and  O_45
REMARK   16  A    between atoms: C_32  and  O_43
REMARK   17  A    between atoms: C_33  and  O_42
REMARK   18  A    between atoms: C_35  and  C_41
REMARK   19  A    between atoms: O_43  and  C_44
REMARK   20  A    between atoms: O_45  and  C_46
REMARK   21  A    between atoms: O_47  and  C_48
REMARK   22  A    between atoms: O_49  and  C_50
REMARK   23  A    between atoms: O_53  and  C_54
REMARK                            x       y       z     vdW  Elec       q    Type
REMARK                         _______ _______ _______ _____ _____    ______ ____
ROOT
ATOM      1  C   UNL     1     149.092 168.013 190.417  0.00  0.00    +0.113 C 
ATOM      2  C   UNL     1     147.657 168.511 190.777  0.00  0.00    +0.020 C 
ATOM      3  C   UNL     1     146.711 168.488 189.516  0.00  0.00    +0.067 C 
ATOM      4  C   UNL     1     145.270 168.889 189.888  0.00  0.00    +0.003 C 
ATOM      5  C   UNL     1     144.197 168.457 188.879  0.00  0.00    +0.094 C 
ATOM      6  C   UNL     1     143.854 166.963 188.821  0.00  0.00    +0.145 C 
ATOM      7  C   UNL     1     143.032 166.567 187.600  0.00  0.00    +0.083 C 
ATOM      8  O   UNL     1     144.433 166.286 187.683  0.00  0.00    -0.363 OA
ATOM      9  C   UNL     1     143.873 166.109 190.096  0.00  0.00    +0.094 C 
ATOM     10  C   UNL     1     143.022 164.823 190.074  0.00  0.00    +0.003 C 
ATOM     11  C   UNL     1     143.494 163.638 189.218  0.00  0.00    +0.065 C 
ATOM     12  C   UNL     1     142.602 162.415 189.541  0.00  0.00    -0.008 C 
ATOM     13  C   UNL     1     143.206 161.120 189.102  0.00  0.00    -0.083 C 
ATOM     14  C   UNL     1     144.487 161.056 188.721  0.00  0.00    -0.059 C 
ATOM     15  C   UNL     1     145.402 162.254 188.691  0.00  0.00    +0.080 C 
ATOM     16  O   UNL     1     144.867 163.339 189.490  0.00  0.00    -0.369 OA
ATOM     17  C   UNL     1     145.700 162.729 187.259  0.00  0.00    +0.006 C 
ATOM     18  C   UNL     1     146.415 161.715 186.339  0.00  0.00    +0.090 C 
ATOM     19  C   UNL     1     147.832 161.265 186.806  0.00  0.00    +0.100 C 
ATOM     20  C   UNL     1     148.660 162.391 187.355  0.00  0.00    -0.051 C 
ATOM     21  C   UNL     1     149.458 163.239 186.677  0.00  0.00    -0.052 C 
ATOM     22  C   UNL     1     150.025 164.400 187.345  0.00  0.00    -0.052 C 
ATOM     23  C   UNL     1     149.282 165.192 188.129  0.00  0.00    +0.023 C 
ATOM     24  C   UNL     1     149.817 166.402 188.774  0.00  0.00    +0.332 C 
ATOM     25  O   UNL     1     150.863 166.960 188.499  0.00  0.00    -0.246 OA
ATOM     26  O   UNL     1     148.902 166.767 189.701  0.00  0.00    -0.458 OA
ATOM     27  H   UNL     1     149.525 168.734 189.712  0.00  0.00    +0.074 HD
ATOM     28  H   UNL     1     147.209 167.800 191.482  0.00  0.00    +0.036 HD
ATOM     29  H   UNL     1     146.700 167.472 189.097  0.00  0.00    +0.060 HD
ATOM     30  H   UNL     1     145.224 169.983 189.966  0.00  0.00    +0.032 HD
ATOM     31  H   UNL     1     145.024 168.524 190.886  0.00  0.00    +0.032 HD
ATOM     32  H   UNL     1     144.534 168.757 187.878  0.00  0.00    +0.063 HD
ATOM     33  H   UNL     1     142.329 165.749 187.644  0.00  0.00    +0.059 HD
ATOM     34  H   UNL     1     142.717 167.343 186.912  0.00  0.00    +0.059 HD
ATOM     35  H   UNL     1     144.920 165.869 190.320  0.00  0.00    +0.063 HD
ATOM     36  H   UNL     1     142.962 164.457 191.107  0.00  0.00    +0.032 HD
ATOM     37  H   UNL     1     141.985 165.075 189.812  0.00  0.00    +0.032 HD
ATOM     38  H   UNL     1     143.389 163.881 188.159  0.00  0.00    +0.060 HD
ATOM     39  H   UNL     1     142.437 162.328 190.622  0.00  0.00    +0.033 HD
ATOM     40  H   UNL     1     141.619 162.547 189.073  0.00  0.00    +0.033 HD
ATOM     41  H   UNL     1     142.601 160.219 189.136  0.00  0.00    +0.057 HD
ATOM     42  H   UNL     1     144.921 160.099 188.442  0.00  0.00    +0.059 HD
ATOM     43  H   UNL     1     146.336 161.982 189.194  0.00  0.00    +0.064 HD
ATOM     44  H   UNL     1     144.764 163.015 186.760  0.00  0.00    +0.032 HD
ATOM     45  H   UNL     1     146.260 163.673 187.295  0.00  0.00    +0.032 HD
ATOM     46  H   UNL     1     145.773 160.828 186.258  0.00  0.00    +0.063 HD
ATOM     47  H   UNL     1     148.361 160.774 185.985  0.00  0.00    +0.066 HD
ATOM     48  H   UNL     1     148.516 162.552 188.426  0.00  0.00    +0.060 HD
ATOM     49  H   UNL     1     151.068 164.634 187.148  0.00  0.00    +0.062 HD
ATOM     50  H   UNL     1     148.231 164.993 188.307  0.00  0.00    +0.069 HD
ENDROOT
BRANCH  21  51
ATOM     51  C   UNL     1     149.771 163.155 185.210  0.00  0.00    -0.040 C 
ATOM     52  H   UNL     1     150.308 162.229 184.987  0.00  0.00    +0.028 HD
ATOM     53  H   UNL     1     150.384 163.983 184.851  0.00  0.00    +0.028 HD
ATOM     54  H   UNL     1     148.847 163.165 184.624  0.00  0.00    +0.028 HD
ENDBRANCH  21  51
BRANCH   2  55
ATOM     55  C   UNL     1     147.679 169.900 191.427  0.00  0.00    -0.057 C 
ATOM     56  H   UNL     1     146.735 170.120 191.937  0.00  0.00    +0.023 HD
ATOM     57  H   UNL     1     147.862 170.676 190.689  0.00  0.00    +0.023 HD
ATOM     58  H   UNL     1     148.486 170.007 192.155  0.00  0.00    +0.023 HD
ENDBRANCH   2  55
BRANCH   1  59
ATOM     59  C   UNL     1     150.128 167.765 191.566  0.00  0.00    +0.020 C 
ATOM     60  H   UNL     1     150.902 167.122 191.133  0.00  0.00    +0.036 HD
BRANCH  59  61
ATOM     61  C   UNL     1     150.887 169.043 191.946  0.00  0.00    -0.057 C 
ATOM     62  H   UNL     1     150.400 169.555 192.781  0.00  0.00    +0.023 HD
ATOM     63  H   UNL     1     151.928 168.870 192.209  0.00  0.00    +0.023 HD
ATOM     64  H   UNL     1     150.890 169.738 191.099  0.00  0.00    +0.023 HD
ENDBRANCH  59  61
BRANCH  59  65
ATOM     65  C   UNL     1     149.622 167.017 192.835  0.00  0.00    +0.064 C 
ATOM     66  H   UNL     1     148.928 167.683 193.365  0.00  0.00    +0.060 HD
BRANCH  65  67
ATOM     67  C   UNL     1     150.720 166.620 193.859  0.00  0.00    -0.017 C 
ATOM     68  H   UNL     1     151.277 167.508 194.165  0.00  0.00    +0.032 HD
BRANCH  67  69
ATOM     69  C   UNL     1     150.092 166.003 195.118  0.00  0.00    -0.060 C 
ATOM     70  H   UNL     1     149.366 166.692 195.567  0.00  0.00    +0.023 HD
ATOM     71  H   UNL     1     150.857 165.782 195.869  0.00  0.00    +0.023 HD
ATOM     72  H   UNL     1     149.553 165.078 194.903  0.00  0.00    +0.023 HD
ENDBRANCH  67  69
BRANCH  67  73
ATOM     73  C   UNL     1     151.759 165.617 193.293  0.00  0.00    -0.046 C 
ATOM     74  H   UNL     1     152.074 164.939 194.097  0.00  0.00    +0.027 HD
ATOM     75  H   UNL     1     151.292 164.987 192.526  0.00  0.00    +0.027 HD
BRANCH  73  76
ATOM     76  C   UNL     1     153.015 166.300 192.741  0.00  0.00    -0.026 C 
ATOM     77  H   UNL     1     152.796 167.325 192.423  0.00  0.00    +0.029 HD
ATOM     78  H   UNL     1     153.768 166.392 193.536  0.00  0.00    +0.029 HD
BRANCH  76  83
ATOM     79  C   UNL     1     155.084 165.888 189.702  0.00  0.00    +0.059 C 
ATOM     80  C   UNL     1     154.649 164.473 189.308  0.00  0.00    -0.000 C 
ATOM     81  C   UNL     1     153.131 164.351 189.393  0.00  0.00    +0.063 C 
ATOM     82  C   UNL     1     152.653 164.652 190.822  0.00  0.00    -0.000 C 
ATOM     83  C   UNL     1     153.652 165.527 191.583  0.00  0.00    +0.061 C 
ATOM     84  O   UNL     1     154.221 166.483 190.681  0.00  0.00    -0.373 OA
ATOM     85  H   UNL     1     155.013 166.530 188.816  0.00  0.00    +0.059 HD
ATOM     86  H   UNL     1     155.005 164.224 188.302  0.00  0.00    +0.032 HD
ATOM     87  H   UNL     1     155.103 163.720 189.969  0.00  0.00    +0.032 HD
ATOM     88  H   UNL     1     152.685 165.071 188.693  0.00  0.00    +0.060 HD
ATOM     89  H   UNL     1     151.681 165.164 190.749  0.00  0.00    +0.032 HD
ATOM     90  H   UNL     1     152.464 163.729 191.386  0.00  0.00    +0.032 HD
ATOM     91  H   UNL     1     154.461 164.906 191.994  0.00  0.00    +0.060 HD
BRANCH  79  92
ATOM     92  C   UNL     1     156.523 165.929 190.198  0.00  0.00    -0.039 C 
ATOM     93  H   UNL     1     157.218 165.591 189.423  0.00  0.00    +0.025 HD
ATOM     94  H   UNL     1     156.789 166.950 190.492  0.00  0.00    +0.025 HD
ATOM     95  H   UNL     1     156.656 165.303 191.087  0.00  0.00    +0.025 HD
ENDBRANCH  79  92
BRANCH  81  96
ATOM     96  O   UNL     1     152.766 163.024 188.998  0.00  0.00    -0.380 OA
BRANCH  96  97
ATOM     97  C   UNL     1     153.824 162.086 189.161  0.00  0.00    +0.037 C 
ATOM     98  H   UNL     1     153.994 161.598 188.198  0.00  0.00    +0.052 HD
ATOM     99  H   UNL     1     153.552 161.322 189.895  0.00  0.00    +0.052 HD
ATOM    100  H   UNL     1     154.749 162.587 189.461  0.00  0.00    +0.052 HD
ENDBRANCH  96  97
ENDBRANCH  81  96
ENDBRANCH  76  83
ENDBRANCH  73  76
ENDBRANCH  67  73
ENDBRANCH  65  67
BRANCH  65 101
ATOM    101  O   UNL     1     148.860 165.874 192.469  0.00  0.00    -0.391 OA
ATOM    102  H   UNL     1     148.119 165.795 193.093  0.00  0.00    +0.210 HD
ENDBRANCH  65 101
ENDBRANCH  59  65
ENDBRANCH   1  59
BRANCH  19 103
ATOM    103  O   UNL     1     147.701 160.297 187.850  0.00  0.00    -0.385 OA
ATOM    104  H   UNL     1     146.755 160.083 187.926  0.00  0.00    +0.210 HD
ENDBRANCH  19 103
BRANCH  18 105
ATOM    105  O   UNL     1     146.502 162.339 185.043  0.00  0.00    -0.377 OA
BRANCH 105 106
ATOM    106  C   UNL     1     145.990 163.666 185.023  0.00  0.00    +0.037 C 
ATOM    107  H   UNL     1     146.628 164.306 184.404  0.00  0.00    +0.052 HD
ATOM    108  H   UNL     1     145.915 164.077 186.033  0.00  0.00    +0.052 HD
ATOM    109  H   UNL     1     144.990 163.644 184.582  0.00  0.00    +0.052 HD
ENDBRANCH 105 106
ENDBRANCH  18 105
BRANCH   9 110
ATOM    110  O   UNL     1     143.330 166.906 191.171  0.00  0.00    -0.377 OA
BRANCH 110 111
ATOM    111  C   UNL     1     142.324 166.242 191.929  0.00  0.00    +0.037 C 
ATOM    112  H   UNL     1     142.238 165.215 191.558  0.00  0.00    +0.052 HD
ATOM    113  H   UNL     1     141.356 166.732 191.798  0.00  0.00    +0.052 HD
ATOM    114  H   UNL     1     142.591 166.198 192.987  0.00  0.00    +0.052 HD
ENDBRANCH 110 111
ENDBRANCH   9 110
BRANCH   5 115
ATOM    115  O   UNL     1     142.969 169.160 189.152  0.00  0.00    -0.377 OA
BRANCH 115 116
ATOM    116  C   UNL     1     142.820 170.347 188.385  0.00  0.00    +0.037 C 
ATOM    117  H   UNL     1     143.074 171.195 189.022  0.00  0.00    +0.052 HD
ATOM    118  H   UNL     1     143.487 170.347 187.522  0.00  0.00    +0.052 HD
ATOM    119  H   UNL     1     141.781 170.460 188.058  0.00  0.00    +0.052 HD
ENDBRANCH 115 116
ENDBRANCH   5 115
BRANCH   3 120
ATOM    120  O   UNL     1     147.202 169.443 188.560  0.00  0.00    -0.379 OA
BRANCH 120 121
ATOM    121  C   UNL     1     147.423 168.894 187.269  0.00  0.00    +0.037 C 
ATOM    122  H   UNL     1     148.357 169.311 186.875  0.00  0.00    +0.052 HD
ATOM    123  H   UNL     1     146.612 169.158 186.582  0.00  0.00    +0.052 HD
ATOM    124  H   UNL     1     147.530 167.805 187.323  0.00  0.00    +0.052 HD
ENDBRANCH 120 121
ENDBRANCH   3 120
TORSDOF 23
ENDMDL
MODEL 9
REMARK VINA RESULT:      -5.8      5.511     11.043
REMARK  Name = Lobophorolide_conf1
REMARK  23 active torsions:
REMARK  status: ('A' for Active; 'I' for Inactive)
REMARK    1  A    between atoms: C_1  and  C_2
REMARK    2  A    between atoms: C_4  and  O_53
REMARK    3  A    between atoms: C_6  and  C_8
REMARK    4  A    between atoms: C_8  and  C_9
REMARK    5  A    between atoms: C_9  and  C_10
REMARK    6  A    between atoms: C_10  and  C_11
REMARK    7  A    between atoms: C_10  and  C_12
REMARK    8  A    between atoms: C_12  and  C_13
REMARK    9  A    between atoms: C_12  and  O_52
REMARK   10  A    between atoms: C_13  and  C_14
REMARK   11  A    between atoms: C_13  and  C_15
REMARK   12  A    between atoms: C_16  and  C_51
REMARK   13  A    between atoms: C_17  and  O_49
REMARK   14  A    between atoms: C_19  and  O_47
REMARK   15  A    between atoms: C_23  and  O_45
REMARK   16  A    between atoms: C_32  and  O_43
REMARK   17  A    between atoms: C_33  and  O_42
REMARK   18  A    between atoms: C_35  and  C_41
REMARK   19  A    between atoms: O_43  and  C_44
REMARK   20  A    between atoms: O_45  and  C_46
REMARK   21  A    between atoms: O_47  and  C_48
REMARK   22  A    between atoms: O_49  and  C_50
REMARK   23  A    between atoms: O_53  and  C_54
REMARK                            x       y       z     vdW  Elec       q    Type
REMARK                         _______ _______ _______ _____ _____    ______ ____
ROOT
ATOM      1  C   UNL     1     148.568 165.490 187.639  0.00  0.00    +0.113 C 
ATOM      2  C   UNL     1     148.745 166.363 186.356  0.00  0.00    +0.020 C 
ATOM      3  C   UNL     1     147.392 166.484 185.556  0.00  0.00    +0.067 C 
ATOM      4  C   UNL     1     147.541 167.421 184.341  0.00  0.00    +0.003 C 
ATOM      5  C   UNL     1     146.222 167.973 183.785  0.00  0.00    +0.094 C 
ATOM      6  C   UNL     1     145.502 169.038 184.622  0.00  0.00    +0.145 C 
ATOM      7  C   UNL     1     144.067 169.303 184.181  0.00  0.00    +0.083 C 
ATOM      8  O   UNL     1     144.361 168.525 185.345  0.00  0.00    -0.363 OA
ATOM      9  C   UNL     1     146.304 170.069 185.429  0.00  0.00    +0.094 C 
ATOM     10  C   UNL     1     145.578 171.384 185.776  0.00  0.00    +0.003 C 
ATOM     11  C   UNL     1     144.463 171.357 186.833  0.00  0.00    +0.065 C 
ATOM     12  C   UNL     1     144.059 172.816 187.155  0.00  0.00    -0.008 C 
ATOM     13  C   UNL     1     143.302 172.942 188.438  0.00  0.00    -0.083 C 
ATOM     14  C   UNL     1     143.241 171.920 189.300  0.00  0.00    -0.059 C 
ATOM     15  C   UNL     1     143.901 170.588 189.052  0.00  0.00    +0.080 C 
ATOM     16  O   UNL     1     144.911 170.691 188.017  0.00  0.00    -0.369 OA
ATOM     17  C   UNL     1     142.885 169.485 188.712  0.00  0.00    +0.006 C 
ATOM     18  C   UNL     1     141.837 169.163 189.800  0.00  0.00    +0.090 C 
ATOM     19  C   UNL     1     142.409 168.637 191.151  0.00  0.00    +0.100 C 
ATOM     20  C   UNL     1     143.535 167.659 190.976  0.00  0.00    -0.051 C 
ATOM     21  C   UNL     1     143.453 166.324 190.811  0.00  0.00    -0.052 C 
ATOM     22  C   UNL     1     144.637 165.559 190.451  0.00  0.00    -0.052 C 
ATOM     23  C   UNL     1     145.469 165.967 189.485  0.00  0.00    +0.023 C 
ATOM     24  C   UNL     1     146.645 165.186 189.064  0.00  0.00    +0.332 C 
ATOM     25  O   UNL     1     146.867 164.020 189.333  0.00  0.00    -0.246 OA
ATOM     26  O   UNL     1     147.397 166.021 188.309  0.00  0.00    -0.458 OA
ATOM     27  H   UNL     1     148.326 164.471 187.314  0.00  0.00    +0.074 HD
ATOM     28  H   UNL     1     148.986 167.387 186.664  0.00  0.00    +0.036 HD
ATOM     29  H   UNL     1     146.618 166.887 186.223  0.00  0.00    +0.060 HD
ATOM     30  H   UNL     1     148.029 166.863 183.532  0.00  0.00    +0.032 HD
ATOM     31  H   UNL     1     148.227 168.236 184.577  0.00  0.00    +0.032 HD
ATOM     32  H   UNL     1     145.529 167.131 183.658  0.00  0.00    +0.063 HD
ATOM     33  H   UNL     1     143.619 170.277 184.299  0.00  0.00    +0.059 HD
ATOM     34  H   UNL     1     143.686 168.779 183.311  0.00  0.00    +0.059 HD
ATOM     35  H   UNL     1     146.655 169.574 186.343  0.00  0.00    +0.063 HD
ATOM     36  H   UNL     1     146.338 172.086 186.143  0.00  0.00    +0.032 HD
ATOM     37  H   UNL     1     145.200 171.848 184.855  0.00  0.00    +0.032 HD
ATOM     38  H   UNL     1     143.593 170.829 186.438  0.00  0.00    +0.060 HD
ATOM     39  H   UNL     1     144.947 173.453 187.256  0.00  0.00    +0.033 HD
ATOM     40  H   UNL     1     143.463 173.220 186.327  0.00  0.00    +0.033 HD
ATOM     41  H   UNL     1     142.836 173.892 188.682  0.00  0.00    +0.057 HD
ATOM     42  H   UNL     1     142.719 172.042 190.246  0.00  0.00    +0.059 HD
ATOM     43  H   UNL     1     144.461 170.312 189.951  0.00  0.00    +0.064 HD
ATOM     44  H   UNL     1     142.332 169.755 187.801  0.00  0.00    +0.032 HD
ATOM     45  H   UNL     1     143.419 168.572 188.415  0.00  0.00    +0.032 HD
ATOM     46  H   UNL     1     141.265 170.079 189.993  0.00  0.00    +0.063 HD
ATOM     47  H   UNL     1     141.611 168.190 191.749  0.00  0.00    +0.066 HD
ATOM     48  H   UNL     1     144.516 168.134 190.912  0.00  0.00    +0.060 HD
ATOM     49  H   UNL     1     144.799 164.614 190.962  0.00  0.00    +0.062 HD
ATOM     50  H   UNL     1     145.302 166.890 188.940  0.00  0.00    +0.069 HD
ENDROOT
BRANCH  21  51
ATOM     51  C   UNL     1     142.190 165.513 190.880  0.00  0.00    -0.040 C 
ATOM     52  H   UNL     1     141.901 165.344 191.921  0.00  0.00    +0.028 HD
ATOM     53  H   UNL     1     142.277 164.536 190.402  0.00  0.00    +0.028 HD
ATOM     54  H   UNL     1     141.373 166.041 190.379  0.00  0.00    +0.028 HD
ENDBRANCH  21  51
BRANCH   2  55
ATOM     55  C   UNL     1     149.874 165.840 185.460  0.00  0.00    -0.057 C 
ATOM     56  H   UNL     1     150.228 164.858 185.793  0.00  0.00    +0.023 HD
ATOM     57  H   UNL     1     150.717 166.524 185.448  0.00  0.00    +0.023 HD
ATOM     58  H   UNL     1     149.569 165.748 184.415  0.00  0.00    +0.023 HD
ENDBRANCH   2  55
BRANCH   1  59
ATOM     59  C   UNL     1     149.736 165.412 188.680  0.00  0.00    +0.020 C 
ATOM     60  H   UNL     1     149.270 165.111 189.625  0.00  0.00    +0.036 HD
BRANCH  59  61
ATOM     61  C   UNL     1     150.710 164.268 188.372  0.00  0.00    -0.057 C 
ATOM     62  H   UNL     1     151.733 164.641 188.270  0.00  0.00    +0.023 HD
ATOM     63  H   UNL     1     150.705 163.478 189.120  0.00  0.00    +0.023 HD
ATOM     64  H   UNL     1     150.440 163.799 187.420  0.00  0.00    +0.023 HD
ENDBRANCH  59  61
BRANCH  59  65
ATOM     65  C   UNL     1     150.503 166.731 188.993  0.00  0.00    +0.064 C 
ATOM     66  H   UNL     1     150.688 167.247 188.041  0.00  0.00    +0.060 HD
BRANCH  65  67
ATOM     67  C   UNL     1     151.887 166.553 189.676  0.00  0.00    -0.017 C 
ATOM     68  H   UNL     1     152.103 165.490 189.800  0.00  0.00    +0.032 HD
BRANCH  67  69
ATOM     69  C   UNL     1     153.001 167.160 188.810  0.00  0.00    -0.060 C 
ATOM     70  H   UNL     1     152.998 166.718 187.805  0.00  0.00    +0.023 HD
ATOM     71  H   UNL     1     153.986 166.978 189.254  0.00  0.00    +0.023 HD
ATOM     72  H   UNL     1     152.885 168.237 188.677  0.00  0.00    +0.023 HD
ENDBRANCH  67  69
BRANCH  67  73
ATOM     73  C   UNL     1     151.966 167.192 191.086  0.00  0.00    -0.046 C 
ATOM     74  H   UNL     1     152.798 167.908 191.107  0.00  0.00    +0.027 HD
ATOM     75  H   UNL     1     151.057 167.771 191.287  0.00  0.00    +0.027 HD
BRANCH  73  76
ATOM     76  C   UNL     1     152.210 166.165 192.198  0.00  0.00    -0.026 C 
ATOM     77  H   UNL     1     152.605 165.229 191.787  0.00  0.00    +0.029 HD
ATOM     78  H   UNL     1     152.983 166.536 192.884  0.00  0.00    +0.029 HD
BRANCH  76  83
ATOM     79  C   UNL     1     148.774 166.770 193.432  0.00  0.00    +0.059 C 
ATOM     80  C   UNL     1     148.752 165.755 194.579  0.00  0.00    -0.000 C 
ATOM     81  C   UNL     1     150.038 165.859 195.393  0.00  0.00    +0.063 C 
ATOM     82  C   UNL     1     151.257 165.588 194.498  0.00  0.00    -0.000 C 
ATOM     83  C   UNL     1     150.954 165.874 193.025  0.00  0.00    +0.061 C 
ATOM     84  O   UNL     1     150.097 167.017 192.935  0.00  0.00    -0.373 OA
ATOM     85  H   UNL     1     148.418 167.733 193.816  0.00  0.00    +0.059 HD
ATOM     86  H   UNL     1     147.873 165.909 195.216  0.00  0.00    +0.032 HD
ATOM     87  H   UNL     1     148.656 164.728 194.198  0.00  0.00    +0.032 HD
ATOM     88  H   UNL     1     150.102 166.872 195.813  0.00  0.00    +0.060 HD
ATOM     89  H   UNL     1     152.079 166.233 194.847  0.00  0.00    +0.032 HD
ATOM     90  H   UNL     1     151.617 164.557 194.609  0.00  0.00    +0.032 HD
ATOM     91  H   UNL     1     150.442 165.013 192.572  0.00  0.00    +0.060 HD
BRANCH  79  92
ATOM     92  C   UNL     1     147.866 166.357 192.282  0.00  0.00    -0.039 C 
ATOM     93  H   UNL     1     146.820 166.593 192.501  0.00  0.00    +0.025 HD
ATOM     94  H   UNL     1     148.163 166.877 191.365  0.00  0.00    +0.025 HD
ATOM     95  H   UNL     1     147.949 165.285 192.074  0.00  0.00    +0.025 HD
ENDBRANCH  79  92
BRANCH  81  96
ATOM     96  O   UNL     1     149.967 164.910 196.464  0.00  0.00    -0.380 OA
BRANCH  96  97
ATOM     97  C   UNL     1     150.952 163.888 196.368  0.00  0.00    +0.037 C 
ATOM     98  H   UNL     1     151.263 163.816 195.323  0.00  0.00    +0.052 HD
ATOM     99  H   UNL     1     150.538 162.924 196.675  0.00  0.00    +0.052 HD
ATOM    100  H   UNL     1     151.830 164.133 196.972  0.00  0.00    +0.052 HD
ENDBRANCH  96  97
ENDBRANCH  81  96
ENDBRANCH  76  83
ENDBRANCH  73  76
ENDBRANCH  67  73
ENDBRANCH  65  67
BRANCH  65 101
ATOM    101  O   UNL     1     149.691 167.610 189.760  0.00  0.00    -0.391 OA
ATOM    102  H   UNL     1     149.963 168.521 189.559  0.00  0.00    +0.210 HD
ENDBRANCH  65 101
ENDBRANCH  59  65
ENDBRANCH   1  59
BRANCH  19 103
ATOM    103  O   UNL     1     142.925 169.736 191.906  0.00  0.00    -0.385 OA
ATOM    104  H   UNL     1     143.837 169.510 192.155  0.00  0.00    +0.210 HD
ENDBRANCH  19 103
BRANCH  18 105
ATOM    105  O   UNL     1     140.950 168.181 189.228  0.00  0.00    -0.377 OA
BRANCH 105 106
ATOM    106  C   UNL     1     141.329 167.779 187.917  0.00  0.00    +0.037 C 
ATOM    107  H   UNL     1     140.677 168.253 187.176  0.00  0.00    +0.052 HD
ATOM    108  H   UNL     1     141.291 166.692 187.810  0.00  0.00    +0.052 HD
ATOM    109  H   UNL     1     142.355 168.109 187.738  0.00  0.00    +0.052 HD
ENDBRANCH 105 106
ENDBRANCH  18 105
BRANCH   9 110
ATOM    110  O   UNL     1     147.444 170.461 184.635  0.00  0.00    -0.377 OA
BRANCH 110 111
ATOM    111  C   UNL     1     147.198 171.580 183.788  0.00  0.00    +0.037 C 
ATOM    112  H   UNL     1     148.066 171.711 183.134  0.00  0.00    +0.052 HD
ATOM    113  H   UNL     1     147.078 172.491 184.380  0.00  0.00    +0.052 HD
ATOM    114  H   UNL     1     146.322 171.414 183.159  0.00  0.00    +0.052 HD
ENDBRANCH 110 111
ENDBRANCH   9 110
BRANCH   5 115
ATOM    115  O   UNL     1     146.451 168.546 182.482  0.00  0.00    -0.377 OA
BRANCH 115 116
ATOM    116  C   UNL     1     146.091 167.679 181.416  0.00  0.00    +0.037 C 
ATOM    117  H   UNL     1     146.496 168.094 180.492  0.00  0.00    +0.052 HD
ATOM    118  H   UNL     1     146.506 166.681 181.561  0.00  0.00    +0.052 HD
ATOM    119  H   UNL     1     145.002 167.624 181.322  0.00  0.00    +0.052 HD
ENDBRANCH 115 116
ENDBRANCH   5 115
BRANCH   3 120
ATOM    120  O   UNL     1     147.034 165.180 185.066  0.00  0.00    -0.379 OA
BRANCH 120 121
ATOM    121  C   UNL     1     145.720 164.778 185.427  0.00  0.00    +0.037 C 
ATOM    122  H   UNL     1     145.286 165.559 186.063  0.00  0.00    +0.052 HD
ATOM    123  H   UNL     1     145.735 163.841 185.994  0.00  0.00    +0.052 HD
ATOM    124  H   UNL     1     145.089 164.670 184.538  0.00  0.00    +0.052 HD
ENDBRANCH 120 121
ENDBRANCH   3 120
TORSDOF 23
ENDMDL
MODEL 10
REMARK VINA RESULT:      -5.7      2.442      3.952
REMARK  Name = Lobophorolide_conf1
REMARK  23 active torsions:
REMARK  status: ('A' for Active; 'I' for Inactive)
REMARK    1  A    between atoms: C_1  and  C_2
REMARK    2  A    between atoms: C_4  and  O_53
REMARK    3  A    between atoms: C_6  and  C_8
REMARK    4  A    between atoms: C_8  and  C_9
REMARK    5  A    between atoms: C_9  and  C_10
REMARK    6  A    between atoms: C_10  and  C_11
REMARK    7  A    between atoms: C_10  and  C_12
REMARK    8  A    between atoms: C_12  and  C_13
REMARK    9  A    between atoms: C_12  and  O_52
REMARK   10  A    between atoms: C_13  and  C_14
REMARK   11  A    between atoms: C_13  and  C_15
REMARK   12  A    between atoms: C_16  and  C_51
REMARK   13  A    between atoms: C_17  and  O_49
REMARK   14  A    between atoms: C_19  and  O_47
REMARK   15  A    between atoms: C_23  and  O_45
REMARK   16  A    between atoms: C_32  and  O_43
REMARK   17  A    between atoms: C_33  and  O_42
REMARK   18  A    between atoms: C_35  and  C_41
REMARK   19  A    between atoms: O_43  and  C_44
REMARK   20  A    between atoms: O_45  and  C_46
REMARK   21  A    between atoms: O_47  and  C_48
REMARK   22  A    between atoms: O_49  and  C_50
REMARK   23  A    between atoms: O_53  and  C_54
REMARK                            x       y       z     vdW  Elec       q    Type
REMARK                         _______ _______ _______ _____ _____    ______ ____
ROOT
ATOM      1  C   UNL     1     154.941 163.360 187.691  0.00  0.00    +0.113 C 
ATOM      2  C   UNL     1     154.251 162.107 187.066  0.00  0.00    +0.020 C 
ATOM      3  C   UNL     1     155.315 161.107 186.469  0.00  0.00    +0.067 C 
ATOM      4  C   UNL     1     154.643 159.826 185.936  0.00  0.00    +0.003 C 
ATOM      5  C   UNL     1     155.581 158.623 185.775  0.00  0.00    +0.094 C 
ATOM      6  C   UNL     1     156.061 157.935 187.059  0.00  0.00    +0.145 C 
ATOM      7  C   UNL     1     157.221 156.970 186.844  0.00  0.00    +0.083 C 
ATOM      8  O   UNL     1     157.421 158.267 187.414  0.00  0.00    -0.363 OA
ATOM      9  C   UNL     1     155.135 157.829 188.279  0.00  0.00    +0.094 C 
ATOM     10  C   UNL     1     155.447 156.700 189.282  0.00  0.00    +0.003 C 
ATOM     11  C   UNL     1     156.688 156.827 190.177  0.00  0.00    +0.065 C 
ATOM     12  C   UNL     1     156.650 155.693 191.230  0.00  0.00    -0.008 C 
ATOM     13  C   UNL     1     157.553 155.947 192.394  0.00  0.00    -0.083 C 
ATOM     14  C   UNL     1     158.105 157.152 192.582  0.00  0.00    -0.059 C 
ATOM     15  C   UNL     1     157.879 158.319 191.656  0.00  0.00    +0.080 C 
ATOM     16  O   UNL     1     156.713 158.105 190.821  0.00  0.00    -0.369 OA
ATOM     17  C   UNL     1     159.114 158.633 190.796  0.00  0.00    +0.006 C 
ATOM     18  C   UNL     1     160.395 159.032 191.561  0.00  0.00    +0.090 C 
ATOM     19  C   UNL     1     160.291 160.329 192.419  0.00  0.00    +0.100 C 
ATOM     20  C   UNL     1     159.532 161.430 191.737  0.00  0.00    -0.051 C 
ATOM     21  C   UNL     1     160.010 162.362 190.889  0.00  0.00    -0.052 C 
ATOM     22  C   UNL     1     159.093 163.227 190.163  0.00  0.00    -0.052 C 
ATOM     23  C   UNL     1     158.006 162.740 189.549  0.00  0.00    +0.023 C 
ATOM     24  C   UNL     1     157.091 163.584 188.763  0.00  0.00    +0.332 C 
ATOM     25  O   UNL     1     157.314 164.713 188.368  0.00  0.00    -0.246 OA
ATOM     26  O   UNL     1     155.981 162.838 188.556  0.00  0.00    -0.458 OA
ATOM     27  H   UNL     1     155.435 163.906 186.878  0.00  0.00    +0.074 HD
ATOM     28  H   UNL     1     153.753 161.548 187.866  0.00  0.00    +0.036 HD
ATOM     29  H   UNL     1     156.027 160.832 187.259  0.00  0.00    +0.060 HD
ATOM     30  H   UNL     1     154.219 160.045 184.947  0.00  0.00    +0.032 HD
ATOM     31  H   UNL     1     153.787 159.563 186.559  0.00  0.00    +0.032 HD
ATOM     32  H   UNL     1     156.473 158.959 185.229  0.00  0.00    +0.063 HD
ATOM     33  H   UNL     1     157.342 156.098 187.469  0.00  0.00    +0.059 HD
ATOM     34  H   UNL     1     157.580 156.805 185.835  0.00  0.00    +0.059 HD
ATOM     35  H   UNL     1     155.143 158.803 188.787  0.00  0.00    +0.063 HD
ATOM     36  H   UNL     1     154.584 156.618 189.955  0.00  0.00    +0.032 HD
ATOM     37  H   UNL     1     155.472 155.738 188.752  0.00  0.00    +0.032 HD
ATOM     38  H   UNL     1     157.592 156.717 189.574  0.00  0.00    +0.060 HD
ATOM     39  H   UNL     1     155.640 155.578 191.642  0.00  0.00    +0.033 HD
ATOM     40  H   UNL     1     156.915 154.742 190.751  0.00  0.00    +0.033 HD
ATOM     41  H   UNL     1     157.723 155.150 193.111  0.00  0.00    +0.057 HD
ATOM     42  H   UNL     1     158.728 157.330 193.456  0.00  0.00    +0.059 HD
ATOM     43  H   UNL     1     157.619 159.191 192.265  0.00  0.00    +0.064 HD
ATOM     44  H   UNL     1     159.366 157.762 190.175  0.00  0.00    +0.032 HD
ATOM     45  H   UNL     1     158.859 159.401 190.053  0.00  0.00    +0.032 HD
ATOM     46  H   UNL     1     160.664 158.195 192.219  0.00  0.00    +0.063 HD
ATOM     47  H   UNL     1     161.289 160.676 192.699  0.00  0.00    +0.066 HD
ATOM     48  H   UNL     1     158.456 161.394 191.922  0.00  0.00    +0.060 HD
ATOM     49  H   UNL     1     159.346 164.281 190.091  0.00  0.00    +0.062 HD
ATOM     50  H   UNL     1     157.759 161.684 189.580  0.00  0.00    +0.069 HD
ENDROOT
BRANCH  21  51
ATOM     51  C   UNL     1     161.457 162.557 190.534  0.00  0.00    -0.040 C 
ATOM     52  H   UNL     1     161.928 163.261 191.225  0.00  0.00    +0.028 HD
ATOM     53  H   UNL     1     161.605 162.941 189.523  0.00  0.00    +0.028 HD
ATOM     54  H   UNL     1     161.993 161.606 190.594  0.00  0.00    +0.028 HD
ENDBRANCH  21  51
BRANCH   2  55
ATOM     55  C   UNL     1     153.206 162.495 186.013  0.00  0.00    -0.057 C 
ATOM     56  H   UNL     1     153.195 163.577 185.838  0.00  0.00    +0.023 HD
ATOM     57  H   UNL     1     152.209 162.185 186.314  0.00  0.00    +0.023 HD
ATOM     58  H   UNL     1     153.377 162.003 185.053  0.00  0.00    +0.023 HD
ENDBRANCH   2  55
BRANCH   1  59
ATOM     59  C   UNL     1     154.080 164.376 188.517  0.00  0.00    +0.020 C 
ATOM     60  H   UNL     1     154.794 165.087 188.947  0.00  0.00    +0.036 HD
BRANCH  59  61
ATOM     61  C   UNL     1     153.195 165.248 187.617  0.00  0.00    -0.057 C 
ATOM     62  H   UNL     1     152.181 164.843 187.553  0.00  0.00    +0.023 HD
ATOM     63  H   UNL     1     153.131 166.285 187.941  0.00  0.00    +0.023 HD
ATOM     64  H   UNL     1     153.602 165.264 186.600  0.00  0.00    +0.023 HD
ENDBRANCH  59  61
BRANCH  59  65
ATOM     65  C   UNL     1     153.271 163.813 189.722  0.00  0.00    +0.064 C 
ATOM     66  H   UNL     1     152.237 163.651 189.387  0.00  0.00    +0.060 HD
BRANCH  65  67
ATOM     67  C   UNL     1     153.191 164.741 190.966  0.00  0.00    -0.017 C 
ATOM     68  H   UNL     1     153.293 164.146 191.876  0.00  0.00    +0.032 HD
BRANCH  67  69
ATOM     69  C   UNL     1     154.330 165.772 190.948  0.00  0.00    -0.060 C 
ATOM     70  H   UNL     1     154.585 166.051 189.918  0.00  0.00    +0.023 HD
ATOM     71  H   UNL     1     155.231 165.367 191.420  0.00  0.00    +0.023 HD
ATOM     72  H   UNL     1     154.063 166.696 191.464  0.00  0.00    +0.023 HD
ENDBRANCH  67  69
BRANCH  67  73
ATOM     73  C   UNL     1     151.847 165.504 191.081  0.00  0.00    -0.046 C 
ATOM     74  H   UNL     1     151.741 166.172 190.216  0.00  0.00    +0.027 HD
ATOM     75  H   UNL     1     151.009 164.798 191.028  0.00  0.00    +0.027 HD
BRANCH  73  76
ATOM     76  C   UNL     1     151.750 166.364 192.346  0.00  0.00    -0.026 C 
ATOM     77  H   UNL     1     152.678 166.313 192.926  0.00  0.00    +0.029 HD
ATOM     78  H   UNL     1     151.632 167.420 192.070  0.00  0.00    +0.029 HD
BRANCH  76  83
ATOM     79  C   UNL     1     148.424 166.812 193.903  0.00  0.00    +0.059 C 
ATOM     80  C   UNL     1     148.495 165.688 194.942  0.00  0.00    -0.000 C 
ATOM     81  C   UNL     1     149.842 165.723 195.657  0.00  0.00    +0.063 C 
ATOM     82  C   UNL     1     150.985 165.554 194.646  0.00  0.00    -0.000 C 
ATOM     83  C   UNL     1     150.565 165.981 193.237  0.00  0.00    +0.061 C 
ATOM     84  O   UNL     1     149.702 167.120 193.330  0.00  0.00    -0.373 OA
ATOM     85  H   UNL     1     148.098 167.729 194.409  0.00  0.00    +0.059 HD
ATOM     86  H   UNL     1     147.669 165.770 195.659  0.00  0.00    +0.032 HD
ATOM     87  H   UNL     1     148.369 164.703 194.470  0.00  0.00    +0.032 HD
ATOM     88  H   UNL     1     149.938 166.690 196.170  0.00  0.00    +0.060 HD
ATOM     89  H   UNL     1     151.831 166.169 194.991  0.00  0.00    +0.032 HD
ATOM     90  H   UNL     1     151.354 164.520 194.625  0.00  0.00    +0.032 HD
ATOM     91  H   UNL     1     150.019 165.165 192.743  0.00  0.00    +0.060 HD
BRANCH  79  92
ATOM     92  C   UNL     1     147.427 166.507 192.794  0.00  0.00    -0.039 C 
ATOM     93  H   UNL     1     146.530 166.021 193.192  0.00  0.00    +0.025 HD
ATOM     94  H   UNL     1     147.133 167.433 192.289  0.00  0.00    +0.025 HD
ATOM     95  H   UNL     1     147.868 165.860 192.029  0.00  0.00    +0.025 HD
ENDBRANCH  79  92
BRANCH  81  96
ATOM     96  O   UNL     1     149.857 164.672 196.631  0.00  0.00    -0.380 OA
BRANCH  96  97
ATOM     97  C   UNL     1     150.961 163.788 196.477  0.00  0.00    +0.037 C 
ATOM     98  H   UNL     1     150.890 163.020 197.250  0.00  0.00    +0.052 HD
ATOM     99  H   UNL     1     151.905 164.325 196.606  0.00  0.00    +0.052 HD
ATOM    100  H   UNL     1     150.935 163.296 195.500  0.00  0.00    +0.052 HD
ENDBRANCH  96  97
ENDBRANCH  81  96
ENDBRANCH  76  83
ENDBRANCH  73  76
ENDBRANCH  67  73
ENDBRANCH  65  67
BRANCH  65 101
ATOM    101  O   UNL     1     153.763 162.534 190.099  0.00  0.00    -0.391 OA
ATOM    102  H   UNL     1     153.956 162.556 191.051  0.00  0.00    +0.210 HD
ENDBRANCH  65 101
ENDBRANCH  59  65
ENDBRANCH   1  59
BRANCH  19 103
ATOM    103  O   UNL     1     159.598 160.036 193.635  0.00  0.00    -0.385 OA
ATOM    104  H   UNL     1     158.697 159.763 193.394  0.00  0.00    +0.210 HD
ENDBRANCH  19 103
BRANCH  18 105
ATOM    105  O   UNL     1     161.428 159.184 190.567  0.00  0.00    -0.377 OA
BRANCH 105 106
ATOM    106  C   UNL     1     160.962 158.980 189.238  0.00  0.00    +0.037 C 
ATOM    107  H   UNL     1     161.784 159.111 188.528  0.00  0.00    +0.052 HD
ATOM    108  H   UNL     1     160.144 159.663 188.996  0.00  0.00    +0.052 HD
ATOM    109  H   UNL     1     160.593 157.954 189.156  0.00  0.00    +0.052 HD
ENDBRANCH 105 106
ENDBRANCH  18 105
BRANCH   9 110
ATOM    110  O   UNL     1     153.801 157.556 187.800  0.00  0.00    -0.377 OA
BRANCH 110 111
ATOM    111  C   UNL     1     153.409 156.194 187.935  0.00  0.00    +0.037 C 
ATOM    112  H   UNL     1     153.972 155.601 187.206  0.00  0.00    +0.052 HD
ATOM    113  H   UNL     1     152.344 156.076 187.717  0.00  0.00    +0.052 HD
ATOM    114  H   UNL     1     153.639 155.813 188.932  0.00  0.00    +0.052 HD
ENDBRANCH 110 111
ENDBRANCH   9 110
BRANCH   5 115
ATOM    115  O   UNL     1     154.936 157.614 184.972  0.00  0.00    -0.377 OA
BRANCH 115 116
ATOM    116  C   UNL     1     153.778 158.087 184.300  0.00  0.00    +0.037 C 
ATOM    117  H   UNL     1     154.100 158.608 183.397  0.00  0.00    +0.052 HD
ATOM    118  H   UNL     1     153.123 157.264 184.012  0.00  0.00    +0.052 HD
ATOM    119  H   UNL     1     153.234 158.796 184.933  0.00  0.00    +0.052 HD
ENDBRANCH 115 116
ENDBRANCH   5 115
BRANCH   3 120
ATOM    120  O   UNL     1     155.978 161.750 185.367  0.00  0.00    -0.379 OA
BRANCH 120 121
ATOM    121  C   UNL     1     157.393 161.760 185.481  0.00  0.00    +0.037 C 
ATOM    122  H   UNL     1     157.809 161.218 184.624  0.00  0.00    +0.052 HD
ATOM    123  H   UNL     1     157.719 161.257 186.398  0.00  0.00    +0.052 HD
ATOM    124  H   UNL     1     157.778 162.786 185.458  0.00  0.00    +0.052 HD
ENDBRANCH 120 121
ENDBRANCH   3 120
TORSDOF 23
ENDMDL
