MODEL 1
REMARK VINA RESULT:      -5.7      0.000      0.000
REMARK  Name = Mycalolide B_conf2
REMARK  35 active torsions:
REMARK  status: ('A' for Active; 'I' for Inactive)
REMARK    1  A    between atoms: C_1  and  C_2
REMARK    2  A    between atoms: C_3  and  O_72
REMARK    3  A    between atoms: C_22  and  O_70
REMARK    4  A    between atoms: C_23  and  C_69
REMARK    5  A    between atoms: C_29  and  O_68
REMARK    6  A    between atoms: C_34  and  C_35
REMARK    7  A    between atoms: C_35  and  C_36
REMARK    8  A    between atoms: C_36  and  C_37
REMARK    9  A    between atoms: C_36  and  O_66
REMARK   10  A    between atoms: C_37  and  C_38
REMARK   11  A    between atoms: C_37  and  C_39
REMARK   12  A    between atoms: C_39  and  C_40
REMARK   13  A    between atoms: C_40  and  C_41
REMARK   14  A    between atoms: C_41  and  C_42
REMARK   15  A    between atoms: C_41  and  O_57
REMARK   16  A    between atoms: C_42  and  C_43
REMARK   17  A    between atoms: C_42  and  C_44
REMARK   18  A    between atoms: C_44  and  C_45
REMARK   19  A    between atoms: C_44  and  O_53
REMARK   20  A    between atoms: C_45  and  C_46
REMARK   21  A    between atoms: C_45  and  C_47
REMARK   22  A    between atoms: C_48  and  N_49
REMARK   23  A    between atoms: N_49  and  C_50
REMARK   24  A    between atoms: O_53  and  C_54
REMARK   25  A    between atoms: C_54  and  C_56
REMARK   26  A    between atoms: O_57  and  C_58
REMARK   27  A    between atoms: C_58  and  C_60
REMARK   28  A    between atoms: C_60  and  C_61
REMARK   29  A    between atoms: C_60  and  O_64
REMARK   30  A    between atoms: C_61  and  O_62
REMARK   31  A    between atoms: O_62  and  C_63
REMARK   32  A    between atoms: O_64  and  C_65
REMARK   33  A    between atoms: O_66  and  C_67
REMARK   34  A    between atoms: O_70  and  C_71
REMARK   35  A    between atoms: O_72  and  C_73
REMARK                            x       y       z     vdW  Elec       q    Type
REMARK                         _______ _______ _______ _____ _____    ______ ____
ROOT
ATOM      1  C   UNL     1     152.686 164.553 188.255  0.00  0.00    +0.011 C 
ATOM      2  H   UNL     1     153.577 164.028 188.615  0.00  0.00    +0.033 HD
ATOM      3  H   UNL     1     152.993 165.040 187.330  0.00  0.00    +0.033 HD
ENDROOT
BRANCH   1  36
ATOM      4  C   UNL     1     150.279 163.993 187.326  0.00  0.00    +0.020 C 
ATOM      5  C   UNL     1     150.347 164.816 186.003  0.00  0.00    +0.068 C 
ATOM      6  C   UNL     1     151.146 164.213 184.817  0.00  0.00    -0.008 C 
ATOM      7  C   UNL     1     152.637 164.394 184.860  0.00  0.00    -0.077 C 
ATOM      8  C   UNL     1     153.286 165.424 184.291  0.00  0.00    -0.003 C 
ATOM      9  C   UNL     1     154.686 165.591 184.470  0.00  0.00    +0.220 A 
ATOM     10  N   UNL     1     155.502 164.788 185.140  0.00  0.00    -0.205 NA
ATOM     11  C   UNL     1     156.728 165.403 185.098  0.00  0.00    +0.164 A 
ATOM     12  C   UNL     1     156.641 166.561 184.379  0.00  0.00    +0.125 A 
ATOM     13  O   UNL     1     155.357 166.686 183.949  0.00  0.00    -0.443 OA
ATOM     14  C   UNL     1     158.025 164.878 185.782  0.00  0.00    +0.250 A 
ATOM     15  N   UNL     1     158.086 163.753 186.474  0.00  0.00    -0.203 NA
ATOM     16  C   UNL     1     159.389 163.692 186.902  0.00  0.00    +0.164 A 
ATOM     17  C   UNL     1     160.079 164.790 186.459  0.00  0.00    +0.125 A 
ATOM     18  O   UNL     1     159.221 165.559 185.734  0.00  0.00    -0.442 OA
ATOM     19  C   UNL     1     160.007 162.551 187.765  0.00  0.00    +0.249 A 
ATOM     20  N   UNL     1     159.328 161.490 188.170  0.00  0.00    -0.210 NA
ATOM     21  C   UNL     1     160.244 160.742 188.873  0.00  0.00    +0.109 A 
ATOM     22  C   UNL     1     161.457 161.390 188.873  0.00  0.00    +0.118 A 
ATOM     23  O   UNL     1     161.321 162.548 188.175  0.00  0.00    -0.442 OA
ATOM     24  C   UNL     1     159.857 159.439 189.494  0.00  0.00    +0.113 C 
ATOM     25  C   UNL     1     159.258 159.569 190.915  0.00  0.00    +0.051 C 
ATOM     26  C   UNL     1     157.879 158.915 190.907  0.00  0.00    +0.161 C 
ATOM     27  O   UNL     1     157.704 157.809 191.422  0.00  0.00    -0.292 OA
ATOM     28  C   UNL     1     156.753 159.615 190.221  0.00  0.00    -0.023 C 
ATOM     29  C   UNL     1     155.643 158.936 189.880  0.00  0.00    -0.078 C 
ATOM     30  C   UNL     1     154.435 159.532 189.211  0.00  0.00    -0.008 C 
ATOM     31  C   UNL     1     154.715 160.294 187.898  0.00  0.00    +0.069 C 
ATOM     32  C   UNL     1     153.459 160.483 187.044  0.00  0.00    +0.071 C 
ATOM     33  C   UNL     1     152.391 161.255 187.779  0.00  0.00    +0.310 C 
ATOM     34  O   UNL     1     151.796 160.848 188.767  0.00  0.00    -0.251 OA
ATOM     35  O   UNL     1     152.207 162.469 187.192  0.00  0.00    -0.461 OA
ATOM     36  C   UNL     1     151.590 163.505 187.994  0.00  0.00    +0.110 C 
ATOM     37  H   UNL     1     149.799 164.632 188.075  0.00  0.00    +0.036 HD
ATOM     38  H   UNL     1     149.317 164.898 185.629  0.00  0.00    +0.060 HD
ATOM     39  H   UNL     1     150.783 164.699 183.901  0.00  0.00    +0.033 HD
ATOM     40  H   UNL     1     150.912 163.148 184.693  0.00  0.00    +0.033 HD
ATOM     41  H   UNL     1     153.212 163.659 185.420  0.00  0.00    +0.057 HD
ATOM     42  H   UNL     1     152.750 166.195 183.748  0.00  0.00    +0.067 HD
ATOM     43  H   UNL     1     157.335 167.333 184.073  0.00  0.00    +0.105 HD
ATOM     44  H   UNL     1     161.093 165.146 186.556  0.00  0.00    +0.105 HD
ATOM     45  H   UNL     1     162.433 161.178 189.285  0.00  0.00    +0.105 HD
ATOM     46  H   UNL     1     159.113 158.976 188.828  0.00  0.00    +0.067 HD
ATOM     47  H   UNL     1     159.853 158.960 191.609  0.00  0.00    +0.041 HD
ATOM     48  H   UNL     1     156.859 160.673 189.996  0.00  0.00    +0.065 HD
ATOM     49  H   UNL     1     155.583 157.868 190.112  0.00  0.00    +0.057 HD
ATOM     50  H   UNL     1     153.748 158.705 189.000  0.00  0.00    +0.033 HD
ATOM     51  H   UNL     1     153.950 160.186 189.944  0.00  0.00    +0.033 HD
ATOM     52  H   UNL     1     155.449 159.730 187.308  0.00  0.00    +0.060 HD
ATOM     53  H   UNL     1     153.032 159.520 186.746  0.00  0.00    +0.040 HD
ATOM     54  H   UNL     1     153.717 161.018 186.121  0.00  0.00    +0.040 HD
ATOM     55  H   UNL     1     151.298 163.081 188.965  0.00  0.00    +0.074 HD
BRANCH   4  56
ATOM     56  C   UNL     1     149.336 162.792 187.129  0.00  0.00    -0.057 C 
ATOM     57  H   UNL     1     148.355 163.124 186.771  0.00  0.00    +0.023 HD
ATOM     58  H   UNL     1     149.173 162.270 188.077  0.00  0.00    +0.023 HD
ATOM     59  H   UNL     1     149.729 162.070 186.409  0.00  0.00    +0.023 HD
ENDBRANCH   4  56
BRANCH  25  60
ATOM     60  C   UNL     1     159.198 160.965 191.535  0.00  0.00    -0.053 C 
ATOM     61  H   UNL     1     158.222 161.425 191.361  0.00  0.00    +0.024 HD
ATOM     62  H   UNL     1     159.384 160.962 192.613  0.00  0.00    +0.024 HD
ATOM     63  H   UNL     1     159.952 161.621 191.090  0.00  0.00    +0.024 HD
ENDBRANCH  25  60
BRANCH  31  64
ATOM     64  O   UNL     1     155.295 161.567 188.195  0.00  0.00    -0.391 OA
ATOM     65  H   UNL     1     155.493 162.017 187.349  0.00  0.00    +0.210 HD
ENDBRANCH  31  64
BRANCH  24  66
ATOM     66  O   UNL     1     160.984 158.535 189.573  0.00  0.00    -0.373 OA
BRANCH  66  67
ATOM     67  C   UNL     1     160.683 157.243 189.051  0.00  0.00    +0.037 C 
ATOM     68  H   UNL     1     160.195 156.620 189.810  0.00  0.00    +0.052 HD
ATOM     69  H   UNL     1     160.002 157.358 188.200  0.00  0.00    +0.052 HD
ATOM     70  H   UNL     1     161.601 156.755 188.696  0.00  0.00    +0.052 HD
ENDBRANCH  66  67
ENDBRANCH  24  66
BRANCH   5  71
ATOM     71  O   UNL     1     150.812 166.161 186.208  0.00  0.00    -0.379 OA
BRANCH  71  72
ATOM     72  C   UNL     1     149.859 167.033 186.795  0.00  0.00    +0.037 C 
ATOM     73  H   UNL     1     149.547 166.650 187.769  0.00  0.00    +0.052 HD
ATOM     74  H   UNL     1     148.982 167.066 186.140  0.00  0.00    +0.052 HD
ATOM     75  H   UNL     1     150.243 168.051 186.896  0.00  0.00    +0.052 HD
ENDBRANCH  71  72
ENDBRANCH   5  71
ENDBRANCH   1  36
BRANCH   1  76
ATOM     76  C   UNL     1     152.273 165.633 189.272  0.00  0.00    +0.064 C 
ATOM     77  H   UNL     1     151.178 165.671 189.345  0.00  0.00    +0.060 HD
BRANCH  76  78
ATOM     78  C   UNL     1     152.852 165.277 190.680  0.00  0.00    -0.017 C 
ATOM     79  H   UNL     1     152.044 164.818 191.272  0.00  0.00    +0.032 HD
BRANCH  78  80
ATOM     80  C   UNL     1     153.976 164.240 190.622  0.00  0.00    -0.060 C 
ATOM     81  H   UNL     1     154.453 164.123 191.599  0.00  0.00    +0.023 HD
ATOM     82  H   UNL     1     154.742 164.518 189.893  0.00  0.00    +0.023 HD
ATOM     83  H   UNL     1     153.591 163.249 190.354  0.00  0.00    +0.023 HD
ENDBRANCH  78  80
BRANCH  78  84
ATOM     84  C   UNL     1     153.296 166.589 191.382  0.00  0.00    -0.045 C 
ATOM     85  H   UNL     1     154.361 166.531 191.621  0.00  0.00    +0.027 HD
ATOM     86  H   UNL     1     153.215 167.409 190.658  0.00  0.00    +0.027 HD
BRANCH  84  87
ATOM     87  C   UNL     1     152.471 167.012 192.605  0.00  0.00    -0.015 C 
ATOM     88  H   UNL     1     152.593 166.206 193.341  0.00  0.00    +0.030 HD
ATOM     89  H   UNL     1     152.901 167.918 193.047  0.00  0.00    +0.030 HD
BRANCH  87  90
ATOM     90  C   UNL     1     150.960 167.197 192.349  0.00  0.00    +0.109 C 
ATOM     91  H   UNL     1     150.629 166.369 191.718  0.00  0.00    +0.074 HD
BRANCH  90  92
ATOM     92  C   UNL     1     150.670 168.530 191.595  0.00  0.00    +0.031 C 
ATOM     93  H   UNL     1     150.922 168.362 190.540  0.00  0.00    +0.037 HD
BRANCH  92  94
ATOM     94  C   UNL     1     151.573 169.680 192.081  0.00  0.00    -0.056 C 
ATOM     95  H   UNL     1     151.279 170.637 191.637  0.00  0.00    +0.023 HD
ATOM     96  H   UNL     1     152.624 169.506 191.837  0.00  0.00    +0.023 HD
ATOM     97  H   UNL     1     151.493 169.799 193.166  0.00  0.00    +0.023 HD
ENDBRANCH  92  94
BRANCH  92  98
ATOM     98  C   UNL     1     149.173 168.984 191.635  0.00  0.00    +0.115 C 
ATOM     99  H   UNL     1     148.785 168.690 192.620  0.00  0.00    +0.074 HD
BRANCH  98 100
ATOM    100  C   UNL     1     148.941 170.511 191.474  0.00  0.00    +0.013 C 
ATOM    101  H   UNL     1     149.863 170.971 191.101  0.00  0.00    +0.038 HD
BRANCH 100 102
ATOM    102  C   UNL     1     148.560 171.202 192.788  0.00  0.00    -0.056 C 
ATOM    103  H   UNL     1     148.740 172.278 192.751  0.00  0.00    +0.024 HD
ATOM    104  H   UNL     1     147.497 171.057 193.005  0.00  0.00    +0.024 HD
ATOM    105  H   UNL     1     149.134 170.801 193.632  0.00  0.00    +0.024 HD
ENDBRANCH 100 102
BRANCH 100 106
ATOM    106  C   UNL     1     147.848 170.789 190.453  0.00  0.00    -0.064 C 
ATOM    107  C   UNL     1     146.713 171.439 190.756  0.00  0.00    -0.005 C 
ATOM    108  H   UNL     1     148.047 170.449 189.442  0.00  0.00    +0.059 HD
ATOM    109  H   UNL     1     146.578 171.794 191.778  0.00  0.00    +0.078 HD
BRANCH 107 110
ATOM    110  N   UNL     1     145.664 171.738 189.901  0.00  0.00    -0.284 N 
ATOM    111  C   UNL     1     144.310 171.584 190.201  0.00  0.00    +0.206 C 
ATOM    112  O   UNL     1     143.788 171.184 191.232  0.00  0.00    -0.279 OA
ATOM    113  H   UNL     1     143.670 171.897 189.360  0.00  0.00    +0.126 HD
BRANCH 110 114
ATOM    114  C   UNL     1     146.021 172.299 188.601  0.00  0.00    +0.007 C 
ATOM    115  H   UNL     1     147.091 172.203 188.397  0.00  0.00    +0.043 HD
ATOM    116  H   UNL     1     145.470 171.762 187.823  0.00  0.00    +0.043 HD
ATOM    117  H   UNL     1     145.751 173.357 188.574  0.00  0.00    +0.043 HD
ENDBRANCH 110 114
ENDBRANCH 107 110
ENDBRANCH 100 106
ENDBRANCH  98 100
BRANCH  98 118
ATOM    118  O   UNL     1     148.445 168.315 190.580  0.00  0.00    -0.461 OA
BRANCH 118 119
ATOM    119  C   UNL     1     147.521 167.394 190.968  0.00  0.00    +0.304 C 
ATOM    120  O   UNL     1     146.580 167.594 191.725  0.00  0.00    -0.251 OA
BRANCH 119 121
ATOM    121  C   UNL     1     147.833 166.059 190.367  0.00  0.00    +0.033 C 
ATOM    122  H   UNL     1     147.139 165.307 190.749  0.00  0.00    +0.034 HD
ATOM    123  H   UNL     1     147.725 166.118 189.281  0.00  0.00    +0.034 HD
ATOM    124  H   UNL     1     148.868 165.781 190.590  0.00  0.00    +0.034 HD
ENDBRANCH 119 121
ENDBRANCH 118 119
ENDBRANCH  98 118
ENDBRANCH  92  98
ENDBRANCH  90  92
BRANCH  90 125
ATOM    125  O   UNL     1     150.261 167.192 193.613  0.00  0.00    -0.459 OA
BRANCH 125 126
ATOM    126  C   UNL     1     149.981 165.971 194.166  0.00  0.00    +0.339 C 
ATOM    127  O   UNL     1     150.759 165.026 194.216  0.00  0.00    -0.248 OA
BRANCH 126 128
ATOM    128  C   UNL     1     148.581 165.990 194.796  0.00  0.00    +0.178 C 
ATOM    129  H   UNL     1     148.220 167.028 194.772  0.00  0.00    +0.074 HD
BRANCH 128 130
ATOM    130  C   UNL     1     147.646 165.143 193.919  0.00  0.00    +0.084 C 
ATOM    131  H   UNL     1     148.206 164.288 193.526  0.00  0.00    +0.059 HD
ATOM    132  H   UNL     1     147.297 165.721 193.055  0.00  0.00    +0.059 HD
BRANCH 130 133
ATOM    133  O   UNL     1     146.502 164.594 194.584  0.00  0.00    -0.380 OA
BRANCH 133 134
ATOM    134  C   UNL     1     145.311 165.349 194.401  0.00  0.00    +0.037 C 
ATOM    135  H   UNL     1     145.406 166.044 193.562  0.00  0.00    +0.052 HD
ATOM    136  H   UNL     1     144.497 164.652 194.179  0.00  0.00    +0.052 HD
ATOM    137  H   UNL     1     145.046 165.881 195.319  0.00  0.00    +0.052 HD
ENDBRANCH 133 134
ENDBRANCH 130 133
ENDBRANCH 128 130
BRANCH 128 138
ATOM    138  O   UNL     1     148.469 165.540 196.148  0.00  0.00    -0.366 OA
BRANCH 138 139
ATOM    139  C   UNL     1     147.991 166.544 197.033  0.00  0.00    +0.038 C 
ATOM    140  H   UNL     1     147.012 166.232 197.397  0.00  0.00    +0.052 HD
ATOM    141  H   UNL     1     148.661 166.653 197.889  0.00  0.00    +0.052 HD
ATOM    142  H   UNL     1     147.878 167.504 196.522  0.00  0.00    +0.052 HD
ENDBRANCH 138 139
ENDBRANCH 128 138
ENDBRANCH 126 128
ENDBRANCH 125 126
ENDBRANCH  90 125
ENDBRANCH  87  90
ENDBRANCH  84  87
ENDBRANCH  78  84
ENDBRANCH  76  78
BRANCH  76 143
ATOM    143  O   UNL     1     152.777 166.887 188.790  0.00  0.00    -0.379 OA
BRANCH 143 144
ATOM    144  C   UNL     1     153.785 166.727 187.799  0.00  0.00    +0.037 C 
ATOM    145  H   UNL     1     154.757 166.718 188.300  0.00  0.00    +0.052 HD
ATOM    146  H   UNL     1     153.763 167.549 187.082  0.00  0.00    +0.052 HD
ATOM    147  H   UNL     1     153.652 165.772 187.280  0.00  0.00    +0.052 HD
ENDBRANCH 143 144
ENDBRANCH  76 143
ENDBRANCH   1  76
TORSDOF 35
ENDMDL
MODEL 2
REMARK VINA RESULT:      -5.7      4.546     10.108
REMARK  Name = Mycalolide B_conf2
REMARK  35 active torsions:
REMARK  status: ('A' for Active; 'I' for Inactive)
REMARK    1  A    between atoms: C_1  and  C_2
REMARK    2  A    between atoms: C_3  and  O_72
REMARK    3  A    between atoms: C_22  and  O_70
REMARK    4  A    between atoms: C_23  and  C_69
REMARK    5  A    between atoms: C_29  and  O_68
REMARK    6  A    between atoms: C_34  and  C_35
REMARK    7  A    between atoms: C_35  and  C_36
REMARK    8  A    between atoms: C_36  and  C_37
REMARK    9  A    between atoms: C_36  and  O_66
REMARK   10  A    between atoms: C_37  and  C_38
REMARK   11  A    between atoms: C_37  and  C_39
REMARK   12  A    between atoms: C_39  and  C_40
REMARK   13  A    between atoms: C_40  and  C_41
REMARK   14  A    between atoms: C_41  and  C_42
REMARK   15  A    between atoms: C_41  and  O_57
REMARK   16  A    between atoms: C_42  and  C_43
REMARK   17  A    between atoms: C_42  and  C_44
REMARK   18  A    between atoms: C_44  and  C_45
REMARK   19  A    between atoms: C_44  and  O_53
REMARK   20  A    between atoms: C_45  and  C_46
REMARK   21  A    between atoms: C_45  and  C_47
REMARK   22  A    between atoms: C_48  and  N_49
REMARK   23  A    between atoms: N_49  and  C_50
REMARK   24  A    between atoms: O_53  and  C_54
REMARK   25  A    between atoms: C_54  and  C_56
REMARK   26  A    between atoms: O_57  and  C_58
REMARK   27  A    between atoms: C_58  and  C_60
REMARK   28  A    between atoms: C_60  and  C_61
REMARK   29  A    between atoms: C_60  and  O_64
REMARK   30  A    between atoms: C_61  and  O_62
REMARK   31  A    between atoms: O_62  and  C_63
REMARK   32  A    between atoms: O_64  and  C_65
REMARK   33  A    between atoms: O_66  and  C_67
REMARK   34  A    between atoms: O_70  and  C_71
REMARK   35  A    between atoms: O_72  and  C_73
REMARK                            x       y       z     vdW  Elec       q    Type
REMARK                         _______ _______ _______ _____ _____    ______ ____
ROOT
ATOM      1  C   UNL     1     150.399 163.854 188.016  0.00  0.00    +0.011 C 
ATOM      2  H   UNL     1     149.674 163.049 187.857  0.00  0.00    +0.033 HD
ATOM      3  H   UNL     1     151.014 163.527 188.854  0.00  0.00    +0.033 HD
ENDROOT
BRANCH   1  36
ATOM      4  C   UNL     1     152.745 163.649 186.824  0.00  0.00    +0.020 C 
ATOM      5  C   UNL     1     153.184 162.275 187.417  0.00  0.00    +0.068 C 
ATOM      6  C   UNL     1     152.557 160.992 186.809  0.00  0.00    -0.008 C 
ATOM      7  C   UNL     1     151.185 160.625 187.301  0.00  0.00    -0.077 C 
ATOM      8  C   UNL     1     150.954 159.802 188.338  0.00  0.00    -0.003 C 
ATOM      9  C   UNL     1     149.633 159.592 188.820  0.00  0.00    +0.220 A 
ATOM     10  N   UNL     1     148.515 160.107 188.324  0.00  0.00    -0.205 NA
ATOM     11  C   UNL     1     147.518 159.682 189.166  0.00  0.00    +0.164 A 
ATOM     12  C   UNL     1     148.045 158.893 190.147  0.00  0.00    +0.125 A 
ATOM     13  O   UNL     1     149.385 158.801 189.931  0.00  0.00    -0.443 OA
ATOM     14  C   UNL     1     146.011 160.056 189.041  0.00  0.00    +0.250 A 
ATOM     15  N   UNL     1     145.523 160.823 188.081  0.00  0.00    -0.203 NA
ATOM     16  C   UNL     1     144.182 160.901 188.364  0.00  0.00    +0.164 A 
ATOM     17  C   UNL     1     143.899 160.180 189.494  0.00  0.00    +0.125 A 
ATOM     18  O   UNL     1     145.060 159.626 189.939  0.00  0.00    -0.442 OA
ATOM     19  C   UNL     1     143.125 161.688 187.531  0.00  0.00    +0.249 A 
ATOM     20  N   UNL     1     143.415 162.365 186.433  0.00  0.00    -0.210 NA
ATOM     21  C   UNL     1     142.209 162.880 186.016  0.00  0.00    +0.109 A 
ATOM     22  C   UNL     1     141.223 162.497 186.894  0.00  0.00    +0.118 A 
ATOM     23  O   UNL     1     141.791 161.739 187.869  0.00  0.00    -0.442 OA
ATOM     24  C   UNL     1     142.116 163.714 184.780  0.00  0.00    +0.113 C 
ATOM     25  C   UNL     1     142.387 165.221 185.012  0.00  0.00    +0.051 C 
ATOM     26  C   UNL     1     143.530 165.641 184.092  0.00  0.00    +0.161 C 
ATOM     27  O   UNL     1     143.309 166.297 183.073  0.00  0.00    -0.292 OA
ATOM     28  C   UNL     1     144.918 165.202 184.421  0.00  0.00    -0.023 C 
ATOM     29  C   UNL     1     145.878 165.235 183.479  0.00  0.00    -0.078 C 
ATOM     30  C   UNL     1     147.315 164.845 183.693  0.00  0.00    -0.008 C 
ATOM     31  C   UNL     1     147.536 163.433 184.274  0.00  0.00    +0.069 C 
ATOM     32  C   UNL     1     148.962 162.920 184.056  0.00  0.00    +0.071 C 
ATOM     33  C   UNL     1     149.987 163.822 184.697  0.00  0.00    +0.310 C 
ATOM     34  O   UNL     1     150.223 164.968 184.342  0.00  0.00    -0.251 OA
ATOM     35  O   UNL     1     150.590 163.179 185.735  0.00  0.00    -0.461 OA
ATOM     36  C   UNL     1     151.238 164.000 186.736  0.00  0.00    +0.110 C 
ATOM     37  H   UNL     1     153.182 164.426 187.462  0.00  0.00    +0.036 HD
ATOM     38  H   UNL     1     154.261 162.176 187.221  0.00  0.00    +0.060 HD
ATOM     39  H   UNL     1     153.227 160.156 187.054  0.00  0.00    +0.033 HD
ATOM     40  H   UNL     1     152.548 161.046 185.714  0.00  0.00    +0.033 HD
ATOM     41  H   UNL     1     150.337 161.091 186.804  0.00  0.00    +0.057 HD
ATOM     42  H   UNL     1     151.770 159.339 188.881  0.00  0.00    +0.067 HD
ATOM     43  H   UNL     1     147.649 158.337 190.987  0.00  0.00    +0.105 HD
ATOM     44  H   UNL     1     143.007 159.972 190.064  0.00  0.00    +0.105 HD
ATOM     45  H   UNL     1     140.157 162.659 186.960  0.00  0.00    +0.105 HD
ATOM     46  H   UNL     1     142.858 163.318 184.070  0.00  0.00    +0.067 HD
ATOM     47  H   UNL     1     141.519 165.796 184.661  0.00  0.00    +0.041 HD
ATOM     48  H   UNL     1     145.126 164.848 185.427  0.00  0.00    +0.065 HD
ATOM     49  H   UNL     1     145.622 165.587 182.474  0.00  0.00    +0.057 HD
ATOM     50  H   UNL     1     147.811 164.909 182.719  0.00  0.00    +0.033 HD
ATOM     51  H   UNL     1     147.762 165.607 184.343  0.00  0.00    +0.033 HD
ATOM     52  H   UNL     1     146.843 162.735 183.788  0.00  0.00    +0.060 HD
ATOM     53  H   UNL     1     149.200 162.846 182.990  0.00  0.00    +0.040 HD
ATOM     54  H   UNL     1     149.060 161.911 184.475  0.00  0.00    +0.040 HD
ATOM     55  H   UNL     1     151.188 165.053 186.423  0.00  0.00    +0.074 HD
BRANCH   4  56
ATOM     56  C   UNL     1     153.389 163.832 185.438  0.00  0.00    -0.057 C 
ATOM     57  H   UNL     1     153.126 164.807 185.013  0.00  0.00    +0.023 HD
ATOM     58  H   UNL     1     153.028 163.070 184.741  0.00  0.00    +0.023 HD
ATOM     59  H   UNL     1     154.479 163.766 185.476  0.00  0.00    +0.023 HD
ENDBRANCH   4  56
BRANCH  25  60
ATOM     60  C   UNL     1     142.638 165.684 186.446  0.00  0.00    -0.053 C 
ATOM     61  H   UNL     1     142.724 166.773 186.492  0.00  0.00    +0.024 HD
ATOM     62  H   UNL     1     141.850 165.377 187.139  0.00  0.00    +0.024 HD
ATOM     63  H   UNL     1     143.573 165.267 186.832  0.00  0.00    +0.024 HD
ENDBRANCH  25  60
BRANCH  31  64
ATOM     64  O   UNL     1     147.230 163.432 185.671  0.00  0.00    -0.391 OA
ATOM     65  H   UNL     1     147.726 162.700 186.092  0.00  0.00    +0.210 HD
ENDBRANCH  31  64
BRANCH  24  66
ATOM     66  O   UNL     1     140.816 163.592 184.156  0.00  0.00    -0.373 OA
BRANCH  66  67
ATOM     67  C   UNL     1     140.826 162.692 183.050  0.00  0.00    +0.037 C 
ATOM     68  H   UNL     1     140.790 161.653 183.393  0.00  0.00    +0.052 HD
ATOM     69  H   UNL     1     139.944 162.890 182.429  0.00  0.00    +0.052 HD
ATOM     70  H   UNL     1     141.724 162.856 182.437  0.00  0.00    +0.052 HD
ENDBRANCH  66  67
ENDBRANCH  24  66
BRANCH   5  71
ATOM     71  O   UNL     1     153.025 162.209 188.844  0.00  0.00    -0.379 OA
BRANCH  71  72
ATOM     72  C   UNL     1     153.776 163.170 189.569  0.00  0.00    +0.037 C 
ATOM     73  H   UNL     1     153.964 162.815 190.585  0.00  0.00    +0.052 HD
ATOM     74  H   UNL     1     153.182 164.088 189.629  0.00  0.00    +0.052 HD
ATOM     75  H   UNL     1     154.720 163.410 189.074  0.00  0.00    +0.052 HD
ENDBRANCH  71  72
ENDBRANCH   5  71
ENDBRANCH   1  36
BRANCH   1  76
ATOM     76  C   UNL     1     149.661 165.146 188.417  0.00  0.00    +0.064 C 
ATOM     77  H   UNL     1     149.439 165.126 189.492  0.00  0.00    +0.060 HD
BRANCH  76  78
ATOM     78  C   UNL     1     150.572 166.382 188.123  0.00  0.00    -0.017 C 
ATOM     79  H   UNL     1     151.526 166.011 187.718  0.00  0.00    +0.032 HD
BRANCH  78  80
ATOM     80  C   UNL     1     149.993 167.314 187.057  0.00  0.00    -0.060 C 
ATOM     81  H   UNL     1     149.768 168.299 187.476  0.00  0.00    +0.023 HD
ATOM     82  H   UNL     1     149.077 166.906 186.620  0.00  0.00    +0.023 HD
ATOM     83  H   UNL     1     150.710 167.489 186.247  0.00  0.00    +0.023 HD
ENDBRANCH  78  80
BRANCH  78  84
ATOM     84  C   UNL     1     150.855 167.121 189.460  0.00  0.00    -0.045 C 
ATOM     85  H   UNL     1     151.934 167.237 189.589  0.00  0.00    +0.027 HD
ATOM     86  H   UNL     1     150.471 168.144 189.373  0.00  0.00    +0.027 HD
BRANCH  84  87
ATOM     87  C   UNL     1     150.203 166.521 190.712  0.00  0.00    -0.015 C 
ATOM     88  H   UNL     1     149.626 165.654 190.364  0.00  0.00    +0.030 HD
ATOM     89  H   UNL     1     150.977 166.141 191.388  0.00  0.00    +0.030 HD
BRANCH  87  90
ATOM     90  C   UNL     1     149.237 167.460 191.468  0.00  0.00    +0.109 C 
ATOM     91  H   UNL     1     148.224 167.226 191.136  0.00  0.00    +0.074 HD
BRANCH  90  92
ATOM     92  C   UNL     1     149.525 168.957 191.136  0.00  0.00    +0.031 C 
ATOM     93  H   UNL     1     150.307 168.969 190.366  0.00  0.00    +0.037 HD
BRANCH  92  94
ATOM     94  C   UNL     1     150.093 169.721 192.346  0.00  0.00    -0.056 C 
ATOM     95  H   UNL     1     150.059 170.804 192.190  0.00  0.00    +0.023 HD
ATOM     96  H   UNL     1     151.130 169.444 192.555  0.00  0.00    +0.023 HD
ATOM     97  H   UNL     1     149.502 169.514 193.244  0.00  0.00    +0.023 HD
ENDBRANCH  92  94
BRANCH  92  98
ATOM     98  C   UNL     1     148.302 169.736 190.549  0.00  0.00    +0.115 C 
ATOM     99  H   UNL     1     148.713 170.482 189.855  0.00  0.00    +0.074 HD
BRANCH  98 100
ATOM    100  C   UNL     1     147.282 168.870 189.761  0.00  0.00    +0.013 C 
ATOM    101  H   UNL     1     147.704 167.869 189.620  0.00  0.00    +0.038 HD
BRANCH 100 102
ATOM    102  C   UNL     1     146.946 169.446 188.381  0.00  0.00    -0.056 C 
ATOM    103  H   UNL     1     147.612 169.062 187.605  0.00  0.00    +0.024 HD
ATOM    104  H   UNL     1     145.923 169.182 188.093  0.00  0.00    +0.024 HD
ATOM    105  H   UNL     1     147.027 170.539 188.373  0.00  0.00    +0.024 HD
ENDBRANCH 100 102
BRANCH 100 106
ATOM    106  C   UNL     1     145.986 168.712 190.542  0.00  0.00    -0.064 C 
ATOM    107  C   UNL     1     145.246 167.593 190.511  0.00  0.00    -0.005 C 
ATOM    108  H   UNL     1     145.697 169.559 191.155  0.00  0.00    +0.059 HD
ATOM    109  H   UNL     1     145.600 166.756 189.909  0.00  0.00    +0.078 HD
BRANCH 107 110
ATOM    110  N   UNL     1     144.057 167.354 191.184  0.00  0.00    -0.284 N 
ATOM    111  C   UNL     1     143.898 166.469 192.251  0.00  0.00    +0.206 C 
ATOM    112  O   UNL     1     144.732 165.761 192.798  0.00  0.00    -0.279 OA
ATOM    113  H   UNL     1     142.859 166.461 192.619  0.00  0.00    +0.126 HD
BRANCH 110 114
ATOM    114  C   UNL     1     142.898 168.132 190.756  0.00  0.00    +0.007 C 
ATOM    115  H   UNL     1     142.941 169.161 191.122  0.00  0.00    +0.043 HD
ATOM    116  H   UNL     1     142.873 168.153 189.662  0.00  0.00    +0.043 HD
ATOM    117  H   UNL     1     141.986 167.663 191.132  0.00  0.00    +0.043 HD
ENDBRANCH 110 114
ENDBRANCH 107 110
ENDBRANCH 100 106
ENDBRANCH  98 100
BRANCH  98 118
ATOM    118  O   UNL     1     147.589 170.384 191.628  0.00  0.00    -0.461 OA
BRANCH 118 119
ATOM    119  C   UNL     1     147.199 171.670 191.413  0.00  0.00    +0.304 C 
ATOM    120  O   UNL     1     146.077 172.122 191.600  0.00  0.00    -0.251 OA
BRANCH 119 121
ATOM    121  C   UNL     1     148.338 172.474 190.869  0.00  0.00    +0.033 C 
ATOM    122  H   UNL     1     148.915 171.872 190.163  0.00  0.00    +0.034 HD
ATOM    123  H   UNL     1     147.945 173.349 190.345  0.00  0.00    +0.034 HD
ATOM    124  H   UNL     1     148.972 172.826 191.688  0.00  0.00    +0.034 HD
ENDBRANCH 119 121
ENDBRANCH 118 119
ENDBRANCH  98 118
ENDBRANCH  92  98
ENDBRANCH  90  92
BRANCH  90 125
ATOM    125  O   UNL     1     149.378 167.243 192.888  0.00  0.00    -0.459 OA
BRANCH 125 126
ATOM    126  C   UNL     1     148.239 166.953 193.591  0.00  0.00    +0.339 C 
ATOM    127  O   UNL     1     147.214 167.624 193.575  0.00  0.00    -0.248 OA
BRANCH 126 128
ATOM    128  C   UNL     1     148.404 165.618 194.330  0.00  0.00    +0.178 C 
ATOM    129  H   UNL     1     148.272 164.813 193.594  0.00  0.00    +0.074 HD
BRANCH 128 130
ATOM    130  C   UNL     1     149.840 165.538 194.868  0.00  0.00    +0.084 C 
ATOM    131  H   UNL     1     149.887 166.048 195.836  0.00  0.00    +0.059 HD
ATOM    132  H   UNL     1     150.533 166.060 194.198  0.00  0.00    +0.059 HD
BRANCH 130 133
ATOM    133  O   UNL     1     150.344 164.216 195.094  0.00  0.00    -0.380 OA
BRANCH 133 134
ATOM    134  C   UNL     1     150.910 164.027 196.385  0.00  0.00    +0.037 C 
ATOM    135  H   UNL     1     151.704 163.276 196.364  0.00  0.00    +0.052 HD
ATOM    136  H   UNL     1     151.345 164.978 196.708  0.00  0.00    +0.052 HD
ATOM    137  H   UNL     1     150.137 163.757 197.110  0.00  0.00    +0.052 HD
ENDBRANCH 133 134
ENDBRANCH 130 133
ENDBRANCH 128 130
BRANCH 128 138
ATOM    138  O   UNL     1     147.499 165.354 195.405  0.00  0.00    -0.366 OA
BRANCH 138 139
ATOM    139  C   UNL     1     147.799 166.092 196.582  0.00  0.00    +0.038 C 
ATOM    140  H   UNL     1     148.675 166.709 196.378  0.00  0.00    +0.052 HD
ATOM    141  H   UNL     1     146.967 166.749 196.847  0.00  0.00    +0.052 HD
ATOM    142  H   UNL     1     148.033 165.430 197.420  0.00  0.00    +0.052 HD
ENDBRANCH 138 139
ENDBRANCH 128 138
ENDBRANCH 126 128
ENDBRANCH 125 126
ENDBRANCH  90 125
ENDBRANCH  87  90
ENDBRANCH  84  87
ENDBRANCH  78  84
ENDBRANCH  76  78
BRANCH  76 143
ATOM    143  O   UNL     1     148.441 165.191 187.664  0.00  0.00    -0.379 OA
BRANCH 143 144
ATOM    144  C   UNL     1     147.293 165.346 188.491  0.00  0.00    +0.037 C 
ATOM    145  H   UNL     1     146.706 166.183 188.105  0.00  0.00    +0.052 HD
ATOM    146  H   UNL     1     147.580 165.558 189.522  0.00  0.00    +0.052 HD
ATOM    147  H   UNL     1     146.678 164.441 188.451  0.00  0.00    +0.052 HD
ENDBRANCH 143 144
ENDBRANCH  76 143
ENDBRANCH   1  76
TORSDOF 35
ENDMDL
MODEL 3
REMARK VINA RESULT:      -5.7      5.041      9.422
REMARK  Name = Mycalolide B_conf2
REMARK  35 active torsions:
REMARK  status: ('A' for Active; 'I' for Inactive)
REMARK    1  A    between atoms: C_1  and  C_2
REMARK    2  A    between atoms: C_3  and  O_72
REMARK    3  A    between atoms: C_22  and  O_70
REMARK    4  A    between atoms: C_23  and  C_69
REMARK    5  A    between atoms: C_29  and  O_68
REMARK    6  A    between atoms: C_34  and  C_35
REMARK    7  A    between atoms: C_35  and  C_36
REMARK    8  A    between atoms: C_36  and  C_37
REMARK    9  A    between atoms: C_36  and  O_66
REMARK   10  A    between atoms: C_37  and  C_38
REMARK   11  A    between atoms: C_37  and  C_39
REMARK   12  A    between atoms: C_39  and  C_40
REMARK   13  A    between atoms: C_40  and  C_41
REMARK   14  A    between atoms: C_41  and  C_42
REMARK   15  A    between atoms: C_41  and  O_57
REMARK   16  A    between atoms: C_42  and  C_43
REMARK   17  A    between atoms: C_42  and  C_44
REMARK   18  A    between atoms: C_44  and  C_45
REMARK   19  A    between atoms: C_44  and  O_53
REMARK   20  A    between atoms: C_45  and  C_46
REMARK   21  A    between atoms: C_45  and  C_47
REMARK   22  A    between atoms: C_48  and  N_49
REMARK   23  A    between atoms: N_49  and  C_50
REMARK   24  A    between atoms: O_53  and  C_54
REMARK   25  A    between atoms: C_54  and  C_56
REMARK   26  A    between atoms: O_57  and  C_58
REMARK   27  A    between atoms: C_58  and  C_60
REMARK   28  A    between atoms: C_60  and  C_61
REMARK   29  A    between atoms: C_60  and  O_64
REMARK   30  A    between atoms: C_61  and  O_62
REMARK   31  A    between atoms: O_62  and  C_63
REMARK   32  A    between atoms: O_64  and  C_65
REMARK   33  A    between atoms: O_66  and  C_67
REMARK   34  A    between atoms: O_70  and  C_71
REMARK   35  A    between atoms: O_72  and  C_73
REMARK                            x       y       z     vdW  Elec       q    Type
REMARK                         _______ _______ _______ _____ _____    ______ ____
ROOT
ATOM      1  C   UNL     1     147.024 166.608 184.833  0.00  0.00    +0.011 C 
ATOM      2  H   UNL     1     147.457 166.470 185.829  0.00  0.00    +0.033 HD
ATOM      3  H   UNL     1     147.818 166.344 184.135  0.00  0.00    +0.033 HD
ENDROOT
BRANCH   1  36
ATOM      4  C   UNL     1     145.460 165.159 183.276  0.00  0.00    +0.020 C 
ATOM      5  C   UNL     1     146.560 164.527 182.370  0.00  0.00    +0.068 C 
ATOM      6  C   UNL     1     147.383 163.346 182.951  0.00  0.00    -0.008 C 
ATOM      7  C   UNL     1     148.520 163.714 183.863  0.00  0.00    -0.077 C 
ATOM      8  C   UNL     1     149.784 163.907 183.448  0.00  0.00    -0.003 C 
ATOM      9  C   UNL     1     150.784 164.365 184.348  0.00  0.00    +0.220 A 
ATOM     10  N   UNL     1     150.634 164.610 185.644  0.00  0.00    -0.205 NA
ATOM     11  C   UNL     1     151.846 165.102 186.060  0.00  0.00    +0.164 A 
ATOM     12  C   UNL     1     152.721 165.124 185.012  0.00  0.00    +0.125 A 
ATOM     13  O   UNL     1     152.074 164.636 183.920  0.00  0.00    -0.443 OA
ATOM     14  C   UNL     1     152.176 165.584 187.504  0.00  0.00    +0.250 A 
ATOM     15  N   UNL     1     151.312 165.552 188.503  0.00  0.00    -0.203 NA
ATOM     16  C   UNL     1     152.006 166.077 189.565  0.00  0.00    +0.164 A 
ATOM     17  C   UNL     1     153.274 166.416 189.171  0.00  0.00    +0.125 A 
ATOM     18  O   UNL     1     153.403 166.102 187.854  0.00  0.00    -0.442 OA
ATOM     19  C   UNL     1     151.450 166.265 191.008  0.00  0.00    +0.249 A 
ATOM     20  N   UNL     1     150.227 165.916 191.372  0.00  0.00    -0.210 NA
ATOM     21  C   UNL     1     150.162 166.233 192.710  0.00  0.00    +0.109 A 
ATOM     22  C   UNL     1     151.360 166.776 193.108  0.00  0.00    +0.118 A 
ATOM     23  O   UNL     1     152.191 166.808 192.033  0.00  0.00    -0.442 OA
ATOM     24  C   UNL     1     148.919 165.976 193.500  0.00  0.00    +0.113 C 
ATOM     25  C   UNL     1     147.883 167.125 193.441  0.00  0.00    +0.051 C 
ATOM     26  C   UNL     1     146.567 166.546 192.930  0.00  0.00    +0.161 C 
ATOM     27  O   UNL     1     145.628 166.342 193.702  0.00  0.00    -0.292 OA
ATOM     28  C   UNL     1     146.449 166.184 191.487  0.00  0.00    -0.023 C 
ATOM     29  C   UNL     1     145.470 165.359 191.075  0.00  0.00    -0.078 C 
ATOM     30  C   UNL     1     145.232 164.941 189.649  0.00  0.00    -0.008 C 
ATOM     31  C   UNL     1     146.449 164.318 188.933  0.00  0.00    +0.069 C 
ATOM     32  C   UNL     1     146.056 163.519 187.688  0.00  0.00    +0.071 C 
ATOM     33  C   UNL     1     145.342 164.377 186.672  0.00  0.00    +0.310 C 
ATOM     34  O   UNL     1     144.238 164.877 186.839  0.00  0.00    -0.251 OA
ATOM     35  O   UNL     1     146.114 164.524 185.561  0.00  0.00    -0.461 OA
ATOM     36  C   UNL     1     145.827 165.651 184.699  0.00  0.00    +0.110 C 
ATOM     37  H   UNL     1     145.089 166.049 182.754  0.00  0.00    +0.036 HD
ATOM     38  H   UNL     1     146.045 164.101 181.497  0.00  0.00    +0.060 HD
ATOM     39  H   UNL     1     147.810 162.798 182.100  0.00  0.00    +0.033 HD
ATOM     40  H   UNL     1     146.727 162.629 183.460  0.00  0.00    +0.033 HD
ATOM     41  H   UNL     1     148.286 163.867 184.914  0.00  0.00    +0.057 HD
ATOM     42  H   UNL     1     150.056 163.793 182.404  0.00  0.00    +0.067 HD
ATOM     43  H   UNL     1     153.759 165.401 184.880  0.00  0.00    +0.105 HD
ATOM     44  H   UNL     1     154.135 166.849 189.658  0.00  0.00    +0.105 HD
ATOM     45  H   UNL     1     151.752 167.153 194.041  0.00  0.00    +0.105 HD
ATOM     46  H   UNL     1     148.466 165.058 193.095  0.00  0.00    +0.067 HD
ATOM     47  H   UNL     1     147.665 167.459 194.464  0.00  0.00    +0.041 HD
ATOM     48  H   UNL     1     147.176 166.590 190.789  0.00  0.00    +0.065 HD
ATOM     49  H   UNL     1     144.767 164.961 191.814  0.00  0.00    +0.057 HD
ATOM     50  H   UNL     1     144.417 164.210 189.664  0.00  0.00    +0.033 HD
ATOM     51  H   UNL     1     144.875 165.826 189.110  0.00  0.00    +0.033 HD
ATOM     52  H   UNL     1     146.963 163.640 189.626  0.00  0.00    +0.060 HD
ATOM     53  H   UNL     1     145.397 162.682 187.942  0.00  0.00    +0.040 HD
ATOM     54  H   UNL     1     146.953 163.089 187.226  0.00  0.00    +0.040 HD
ATOM     55  H   UNL     1     144.938 166.175 185.079  0.00  0.00    +0.074 HD
BRANCH   4  56
ATOM     56  C   UNL     1     144.262 164.196 183.367  0.00  0.00    -0.057 C 
ATOM     57  H   UNL     1     144.520 163.215 182.954  0.00  0.00    +0.023 HD
ATOM     58  H   UNL     1     143.415 164.577 182.788  0.00  0.00    +0.023 HD
ATOM     59  H   UNL     1     143.927 164.049 184.397  0.00  0.00    +0.023 HD
ENDBRANCH   4  56
BRANCH  25  60
ATOM     60  C   UNL     1     148.265 168.385 192.665  0.00  0.00    -0.053 C 
ATOM     61  H   UNL     1     149.337 168.584 192.753  0.00  0.00    +0.024 HD
ATOM     62  H   UNL     1     148.019 168.323 191.601  0.00  0.00    +0.024 HD
ATOM     63  H   UNL     1     147.737 169.259 193.058  0.00  0.00    +0.024 HD
ENDBRANCH  25  60
BRANCH  31  64
ATOM     64  O   UNL     1     147.377 165.345 188.575  0.00  0.00    -0.391 OA
ATOM     65  H   UNL     1     148.257 164.934 188.459  0.00  0.00    +0.210 HD
ENDBRANCH  31  64
BRANCH  24  66
ATOM     66  O   UNL     1     149.221 165.727 194.893  0.00  0.00    -0.373 OA
BRANCH  66  67
ATOM     67  C   UNL     1     148.180 166.171 195.762  0.00  0.00    +0.037 C 
ATOM     68  H   UNL     1     147.201 165.840 195.399  0.00  0.00    +0.052 HD
ATOM     69  H   UNL     1     148.350 165.745 196.758  0.00  0.00    +0.052 HD
ATOM     70  H   UNL     1     148.201 167.266 195.847  0.00  0.00    +0.052 HD
ENDBRANCH  66  67
ENDBRANCH  24  66
BRANCH   5  71
ATOM     71  O   UNL     1     147.487 165.500 181.859  0.00  0.00    -0.379 OA
BRANCH  71  72
ATOM     72  C   UNL     1     147.503 165.614 180.445  0.00  0.00    +0.037 C 
ATOM     73  H   UNL     1     148.184 166.412 180.139  0.00  0.00    +0.052 HD
ATOM     74  H   UNL     1     146.493 165.878 180.115  0.00  0.00    +0.052 HD
ATOM     75  H   UNL     1     147.783 164.676 179.961  0.00  0.00    +0.052 HD
ENDBRANCH  71  72
ENDBRANCH   5  71
ENDBRANCH   1  36
BRANCH   1  76
ATOM     76  C   UNL     1     146.652 168.089 184.628  0.00  0.00    +0.064 C 
ATOM     77  H   UNL     1     145.566 168.212 184.720  0.00  0.00    +0.060 HD
BRANCH  76  78
ATOM     78  C   UNL     1     147.345 168.960 185.726  0.00  0.00    -0.017 C 
ATOM     79  H   UNL     1     146.831 168.772 186.681  0.00  0.00    +0.032 HD
BRANCH  78  80
ATOM     80  C   UNL     1     148.811 168.585 185.953  0.00  0.00    -0.060 C 
ATOM     81  H   UNL     1     149.040 168.525 187.021  0.00  0.00    +0.023 HD
ATOM     82  H   UNL     1     149.487 169.311 185.494  0.00  0.00    +0.023 HD
ATOM     83  H   UNL     1     149.039 167.595 185.541  0.00  0.00    +0.023 HD
ENDBRANCH  78  80
BRANCH  78  84
ATOM     84  C   UNL     1     147.171 170.459 185.355  0.00  0.00    -0.045 C 
ATOM     85  H   UNL     1     147.870 171.061 185.940  0.00  0.00    +0.027 HD
ATOM     86  H   UNL     1     147.488 170.592 184.314  0.00  0.00    +0.027 HD
BRANCH  84  87
ATOM     87  C   UNL     1     145.743 171.013 185.444  0.00  0.00    -0.015 C 
ATOM     88  H   UNL     1     145.594 171.605 184.531  0.00  0.00    +0.030 HD
ATOM     89  H   UNL     1     145.023 170.188 185.413  0.00  0.00    +0.030 HD
BRANCH  87  90
ATOM     90  C   UNL     1     145.466 171.931 186.654  0.00  0.00    +0.109 C 
ATOM     91  H   UNL     1     146.407 172.059 187.193  0.00  0.00    +0.074 HD
BRANCH  90  92
ATOM     92  C   UNL     1     144.430 171.291 187.628  0.00  0.00    +0.031 C 
ATOM     93  H   UNL     1     143.716 170.729 187.011  0.00  0.00    +0.037 HD
BRANCH  92  94
ATOM     94  C   UNL     1     143.610 172.353 188.384  0.00  0.00    -0.056 C 
ATOM     95  H   UNL     1     143.443 173.244 187.771  0.00  0.00    +0.023 HD
ATOM     96  H   UNL     1     144.101 172.668 189.308  0.00  0.00    +0.023 HD
ATOM     97  H   UNL     1     142.621 171.961 188.644  0.00  0.00    +0.023 HD
ENDBRANCH  92  94
BRANCH  92  98
ATOM     98  C   UNL     1     145.042 170.275 188.648  0.00  0.00    +0.115 C 
ATOM     99  H   UNL     1     145.034 169.294 188.152  0.00  0.00    +0.074 HD
BRANCH  98 100
ATOM    100  C   UNL     1     146.503 170.572 189.081  0.00  0.00    +0.013 C 
ATOM    101  H   UNL     1     146.992 171.157 188.295  0.00  0.00    +0.038 HD
BRANCH 100 102
ATOM    102  C   UNL     1     147.329 169.302 189.315  0.00  0.00    -0.056 C 
ATOM    103  H   UNL     1     146.697 168.438 189.528  0.00  0.00    +0.024 HD
ATOM    104  H   UNL     1     147.923 169.061 188.428  0.00  0.00    +0.024 HD
ATOM    105  H   UNL     1     148.017 169.422 190.160  0.00  0.00    +0.024 HD
ENDBRANCH 100 102
BRANCH 100 106
ATOM    106  C   UNL     1     146.533 171.404 190.354  0.00  0.00    -0.064 C 
ATOM    107  C   UNL     1     147.654 171.620 191.059  0.00  0.00    -0.005 C 
ATOM    108  H   UNL     1     145.587 171.841 190.656  0.00  0.00    +0.059 HD
ATOM    109  H   UNL     1     148.587 171.190 190.692  0.00  0.00    +0.078 HD
BRANCH 107 110
ATOM    110  N   UNL     1     147.783 172.359 192.225  0.00  0.00    -0.284 N 
ATOM    111  C   UNL     1     148.879 172.320 193.088  0.00  0.00    +0.206 C 
ATOM    112  O   UNL     1     149.909 171.667 192.999  0.00  0.00    -0.279 OA
ATOM    113  H   UNL     1     148.746 173.003 193.943  0.00  0.00    +0.126 HD
BRANCH 110 114
ATOM    114  C   UNL     1     146.694 173.279 192.538  0.00  0.00    +0.007 C 
ATOM    115  H   UNL     1     145.809 173.086 191.925  0.00  0.00    +0.043 HD
ATOM    116  H   UNL     1     146.420 173.156 193.591  0.00  0.00    +0.043 HD
ATOM    117  H   UNL     1     147.023 174.307 192.366  0.00  0.00    +0.043 HD
ENDBRANCH 110 114
ENDBRANCH 107 110
ENDBRANCH 100 106
ENDBRANCH  98 100
BRANCH  98 118
ATOM    118  O   UNL     1     144.225 170.249 189.841  0.00  0.00    -0.461 OA
BRANCH 118 119
ATOM    119  C   UNL     1     143.858 169.022 190.301  0.00  0.00    +0.304 C 
ATOM    120  O   UNL     1     143.912 168.643 191.463  0.00  0.00    -0.251 OA
BRANCH 119 121
ATOM    121  C   UNL     1     143.404 168.158 189.167  0.00  0.00    +0.033 C 
ATOM    122  H   UNL     1     142.331 167.971 189.247  0.00  0.00    +0.034 HD
ATOM    123  H   UNL     1     143.602 168.669 188.221  0.00  0.00    +0.034 HD
ATOM    124  H   UNL     1     143.963 167.217 189.166  0.00  0.00    +0.034 HD
ENDBRANCH 119 121
ENDBRANCH 118 119
ENDBRANCH  98 118
ENDBRANCH  92  98
ENDBRANCH  90  92
BRANCH  90 125
ATOM    125  O   UNL     1     144.967 173.201 186.181  0.00  0.00    -0.459 OA
BRANCH 125 126
ATOM    126  C   UNL     1     145.856 174.241 186.128  0.00  0.00    +0.339 C 
ATOM    127  O   UNL     1     146.774 174.422 186.919  0.00  0.00    -0.248 OA
BRANCH 126 128
ATOM    128  C   UNL     1     145.590 175.096 184.882  0.00  0.00    +0.178 C 
ATOM    129  H   UNL     1     144.723 174.664 184.362  0.00  0.00    +0.074 HD
BRANCH 128 130
ATOM    130  C   UNL     1     145.211 176.512 185.339  0.00  0.00    +0.084 C 
ATOM    131  H   UNL     1     144.625 176.442 186.262  0.00  0.00    +0.059 HD
ATOM    132  H   UNL     1     144.575 177.002 184.594  0.00  0.00    +0.059 HD
BRANCH 130 133
ATOM    133  O   UNL     1     146.309 177.382 185.635  0.00  0.00    -0.380 OA
BRANCH 133 134
ATOM    134  C   UNL     1     146.126 178.718 185.181  0.00  0.00    +0.037 C 
ATOM    135  H   UNL     1     146.566 178.865 184.192  0.00  0.00    +0.052 HD
ATOM    136  H   UNL     1     145.051 178.908 185.111  0.00  0.00    +0.052 HD
ATOM    137  H   UNL     1     146.539 179.430 185.901  0.00  0.00    +0.052 HD
ENDBRANCH 133 134
ENDBRANCH 130 133
ENDBRANCH 128 130
BRANCH 128 138
ATOM    138  O   UNL     1     146.646 175.194 183.922  0.00  0.00    -0.366 OA
BRANCH 138 139
ATOM    139  C   UNL     1     146.193 175.579 182.632  0.00  0.00    +0.038 C 
ATOM    140  H   UNL     1     146.929 176.263 182.207  0.00  0.00    +0.052 HD
ATOM    141  H   UNL     1     146.110 174.709 181.977  0.00  0.00    +0.052 HD
ATOM    142  H   UNL     1     145.233 176.099 182.685  0.00  0.00    +0.052 HD
ENDBRANCH 138 139
ENDBRANCH 128 138
ENDBRANCH 126 128
ENDBRANCH 125 126
ENDBRANCH  90 125
ENDBRANCH  87  90
ENDBRANCH  84  87
ENDBRANCH  78  84
ENDBRANCH  76  78
BRANCH  76 143
ATOM    143  O   UNL     1     147.078 168.455 183.308  0.00  0.00    -0.379 OA
BRANCH 143 144
ATOM    144  C   UNL     1     145.987 168.669 182.420  0.00  0.00    +0.037 C 
ATOM    145  H   UNL     1     145.158 168.032 182.740  0.00  0.00    +0.052 HD
ATOM    146  H   UNL     1     146.259 168.409 181.396  0.00  0.00    +0.052 HD
ATOM    147  H   UNL     1     145.663 169.714 182.469  0.00  0.00    +0.052 HD
ENDBRANCH 143 144
ENDBRANCH  76 143
ENDBRANCH   1  76
TORSDOF 35
ENDMDL
MODEL 4
REMARK VINA RESULT:      -5.7      4.544     11.692
REMARK  Name = Mycalolide B_conf2
REMARK  35 active torsions:
REMARK  status: ('A' for Active; 'I' for Inactive)
REMARK    1  A    between atoms: C_1  and  C_2
REMARK    2  A    between atoms: C_3  and  O_72
REMARK    3  A    between atoms: C_22  and  O_70
REMARK    4  A    between atoms: C_23  and  C_69
REMARK    5  A    between atoms: C_29  and  O_68
REMARK    6  A    between atoms: C_34  and  C_35
REMARK    7  A    between atoms: C_35  and  C_36
REMARK    8  A    between atoms: C_36  and  C_37
REMARK    9  A    between atoms: C_36  and  O_66
REMARK   10  A    between atoms: C_37  and  C_38
REMARK   11  A    between atoms: C_37  and  C_39
REMARK   12  A    between atoms: C_39  and  C_40
REMARK   13  A    between atoms: C_40  and  C_41
REMARK   14  A    between atoms: C_41  and  C_42
REMARK   15  A    between atoms: C_41  and  O_57
REMARK   16  A    between atoms: C_42  and  C_43
REMARK   17  A    between atoms: C_42  and  C_44
REMARK   18  A    between atoms: C_44  and  C_45
REMARK   19  A    between atoms: C_44  and  O_53
REMARK   20  A    between atoms: C_45  and  C_46
REMARK   21  A    between atoms: C_45  and  C_47
REMARK   22  A    between atoms: C_48  and  N_49
REMARK   23  A    between atoms: N_49  and  C_50
REMARK   24  A    between atoms: O_53  and  C_54
REMARK   25  A    between atoms: C_54  and  C_56
REMARK   26  A    between atoms: O_57  and  C_58
REMARK   27  A    between atoms: C_58  and  C_60
REMARK   28  A    between atoms: C_60  and  C_61
REMARK   29  A    between atoms: C_60  and  O_64
REMARK   30  A    between atoms: C_61  and  O_62
REMARK   31  A    between atoms: O_62  and  C_63
REMARK   32  A    between atoms: O_64  and  C_65
REMARK   33  A    between atoms: O_66  and  C_67
REMARK   34  A    between atoms: O_70  and  C_71
REMARK   35  A    between atoms: O_72  and  C_73
REMARK                            x       y       z     vdW  Elec       q    Type
REMARK                         _______ _______ _______ _____ _____    ______ ____
ROOT
ATOM      1  C   UNL     1     147.865 165.060 185.906  0.00  0.00    +0.011 C 
ATOM      2  H   UNL     1     146.938 165.427 186.359  0.00  0.00    +0.033 HD
ATOM      3  H   UNL     1     147.851 163.980 186.057  0.00  0.00    +0.033 HD
ENDROOT
BRANCH   1  36
ATOM      4  C   UNL     1     148.234 164.298 183.405  0.00  0.00    +0.020 C 
ATOM      5  C   UNL     1     147.545 162.902 183.487  0.00  0.00    +0.068 C 
ATOM      6  C   UNL     1     145.994 162.859 183.464  0.00  0.00    -0.008 C 
ATOM      7  C   UNL     1     145.302 163.138 184.768  0.00  0.00    -0.077 C 
ATOM      8  C   UNL     1     144.947 162.187 185.649  0.00  0.00    -0.003 C 
ATOM      9  C   UNL     1     144.399 162.535 186.914  0.00  0.00    +0.220 A 
ATOM     10  N   UNL     1     144.139 163.757 187.358  0.00  0.00    -0.205 NA
ATOM     11  C   UNL     1     143.700 163.587 188.648  0.00  0.00    +0.164 A 
ATOM     12  C   UNL     1     143.678 162.257 188.957  0.00  0.00    +0.125 A 
ATOM     13  O   UNL     1     144.093 161.569 187.860  0.00  0.00    -0.443 OA
ATOM     14  C   UNL     1     143.305 164.733 189.625  0.00  0.00    +0.250 A 
ATOM     15  N   UNL     1     143.335 166.015 189.303  0.00  0.00    -0.203 NA
ATOM     16  C   UNL     1     142.934 166.658 190.447  0.00  0.00    +0.164 A 
ATOM     17  C   UNL     1     142.677 165.742 191.433  0.00  0.00    +0.125 A 
ATOM     18  O   UNL     1     142.904 164.502 190.922  0.00  0.00    -0.442 OA
ATOM     19  C   UNL     1     142.786 168.200 190.616  0.00  0.00    +0.249 A 
ATOM     20  N   UNL     1     143.023 169.068 189.646  0.00  0.00    -0.210 NA
ATOM     21  C   UNL     1     142.756 170.296 190.209  0.00  0.00    +0.109 A 
ATOM     22  C   UNL     1     142.370 170.122 191.517  0.00  0.00    +0.118 A 
ATOM     23  O   UNL     1     142.388 168.792 191.793  0.00  0.00    -0.442 OA
ATOM     24  C   UNL     1     142.901 171.553 189.414  0.00  0.00    +0.113 C 
ATOM     25  C   UNL     1     144.331 172.146 189.424  0.00  0.00    +0.051 C 
ATOM     26  C   UNL     1     144.798 172.276 187.978  0.00  0.00    +0.161 C 
ATOM     27  O   UNL     1     144.830 173.376 187.422  0.00  0.00    -0.292 OA
ATOM     28  C   UNL     1     145.170 171.041 187.227  0.00  0.00    -0.023 C 
ATOM     29  C   UNL     1     145.236 171.061 185.883  0.00  0.00    -0.078 C 
ATOM     30  C   UNL     1     145.623 169.894 185.017  0.00  0.00    -0.008 C 
ATOM     31  C   UNL     1     144.804 168.605 185.242  0.00  0.00    +0.069 C 
ATOM     32  C   UNL     1     144.915 167.622 184.074  0.00  0.00    +0.071 C 
ATOM     33  C   UNL     1     146.343 167.197 183.832  0.00  0.00    +0.310 C 
ATOM     34  O   UNL     1     147.232 167.940 183.440  0.00  0.00    -0.251 OA
ATOM     35  O   UNL     1     146.493 165.878 184.132  0.00  0.00    -0.461 OA
ATOM     36  C   UNL     1     147.835 165.410 184.409  0.00  0.00    +0.110 C 
ATOM     37  H   UNL     1     149.305 164.136 183.571  0.00  0.00    +0.036 HD
ATOM     38  H   UNL     1     147.850 162.346 182.589  0.00  0.00    +0.060 HD
ATOM     39  H   UNL     1     145.702 161.848 183.148  0.00  0.00    +0.033 HD
ATOM     40  H   UNL     1     145.598 163.531 182.692  0.00  0.00    +0.033 HD
ATOM     41  H   UNL     1     145.116 164.180 185.021  0.00  0.00    +0.057 HD
ATOM     42  H   UNL     1     145.139 161.138 185.452  0.00  0.00    +0.067 HD
ATOM     43  H   UNL     1     143.390 161.670 189.820  0.00  0.00    +0.105 HD
ATOM     44  H   UNL     1     142.351 165.796 192.460  0.00  0.00    +0.105 HD
ATOM     45  H   UNL     1     142.069 170.784 192.315  0.00  0.00    +0.105 HD
ATOM     46  H   UNL     1     142.617 171.311 188.378  0.00  0.00    +0.067 HD
ATOM     47  H   UNL     1     144.284 173.179 189.798  0.00  0.00    +0.041 HD
ATOM     48  H   UNL     1     145.372 170.133 187.788  0.00  0.00    +0.065 HD
ATOM     49  H   UNL     1     145.011 171.994 185.356  0.00  0.00    +0.057 HD
ATOM     50  H   UNL     1     145.501 170.214 183.977  0.00  0.00    +0.033 HD
ATOM     51  H   UNL     1     146.691 169.709 185.184  0.00  0.00    +0.033 HD
ATOM     52  H   UNL     1     143.747 168.872 185.366  0.00  0.00    +0.060 HD
ATOM     53  H   UNL     1     144.535 168.062 183.146  0.00  0.00    +0.040 HD
ATOM     54  H   UNL     1     144.306 166.733 184.279  0.00  0.00    +0.040 HD
ATOM     55  H   UNL     1     148.543 166.236 184.246  0.00  0.00    +0.074 HD
BRANCH   4  56
ATOM     56  C   UNL     1     148.109 164.844 181.971  0.00  0.00    -0.057 C 
ATOM     57  H   UNL     1     147.646 165.837 181.972  0.00  0.00    +0.023 HD
ATOM     58  H   UNL     1     147.472 164.192 181.365  0.00  0.00    +0.023 HD
ATOM     59  H   UNL     1     149.078 164.926 181.474  0.00  0.00    +0.023 HD
ENDBRANCH   4  56
BRANCH  25  60
ATOM     60  C   UNL     1     145.384 171.444 190.280  0.00  0.00    -0.053 C 
ATOM     61  H   UNL     1     145.127 171.506 191.341  0.00  0.00    +0.024 HD
ATOM     62  H   UNL     1     145.508 170.388 190.024  0.00  0.00    +0.024 HD
ATOM     63  H   UNL     1     146.365 171.913 190.153  0.00  0.00    +0.024 HD
ENDBRANCH  25  60
BRANCH  31  64
ATOM     64  O   UNL     1     145.227 167.969 186.451  0.00  0.00    -0.391 OA
ATOM     65  H   UNL     1     145.741 167.171 186.213  0.00  0.00    +0.210 HD
ENDBRANCH  31  64
BRANCH  24  66
ATOM     66  O   UNL     1     141.995 172.580 189.879  0.00  0.00    -0.373 OA
BRANCH  66  67
ATOM     67  C   UNL     1     142.672 173.634 190.562  0.00  0.00    +0.037 C 
ATOM     68  H   UNL     1     142.004 174.487 190.722  0.00  0.00    +0.052 HD
ATOM     69  H   UNL     1     143.008 173.261 191.537  0.00  0.00    +0.052 HD
ATOM     70  H   UNL     1     143.555 173.949 189.989  0.00  0.00    +0.052 HD
ENDBRANCH  66  67
ENDBRANCH  24  66
BRANCH   5  71
ATOM     71  O   UNL     1     147.990 162.127 184.613  0.00  0.00    -0.379 OA
BRANCH  71  72
ATOM     72  C   UNL     1     149.379 161.836 184.619  0.00  0.00    +0.037 C 
ATOM     73  H   UNL     1     149.560 160.872 185.101  0.00  0.00    +0.052 HD
ATOM     74  H   UNL     1     149.884 162.613 185.201  0.00  0.00    +0.052 HD
ATOM     75  H   UNL     1     149.802 161.839 183.612  0.00  0.00    +0.052 HD
ENDBRANCH  71  72
ENDBRANCH   5  71
ENDBRANCH   1  36
BRANCH   1  76
ATOM     76  C   UNL     1     149.077 165.650 186.651  0.00  0.00    +0.064 C 
ATOM     77  H   UNL     1     149.430 166.548 186.127  0.00  0.00    +0.060 HD
BRANCH  76  78
ATOM     78  C   UNL     1     148.655 166.056 188.100  0.00  0.00    -0.017 C 
ATOM     79  H   UNL     1     148.503 167.147 188.116  0.00  0.00    +0.032 HD
BRANCH  78  80
ATOM     80  C   UNL     1     147.324 165.437 188.533  0.00  0.00    -0.060 C 
ATOM     81  H   UNL     1     147.380 165.065 189.560  0.00  0.00    +0.023 HD
ATOM     82  H   UNL     1     147.034 164.610 187.880  0.00  0.00    +0.023 HD
ATOM     83  H   UNL     1     146.517 166.179 188.526  0.00  0.00    +0.023 HD
ENDBRANCH  78  80
BRANCH  78  84
ATOM     84  C   UNL     1     149.813 165.703 189.074  0.00  0.00    -0.045 C 
ATOM     85  H   UNL     1     149.397 165.361 190.024  0.00  0.00    +0.027 HD
ATOM     86  H   UNL     1     150.345 164.833 188.670  0.00  0.00    +0.027 HD
BRANCH  84  87
ATOM     87  C   UNL     1     150.871 166.794 189.285  0.00  0.00    -0.015 C 
ATOM     88  H   UNL     1     151.700 166.543 188.609  0.00  0.00    +0.030 HD
ATOM     89  H   UNL     1     150.475 167.762 188.961  0.00  0.00    +0.030 HD
BRANCH  87  90
ATOM     90  C   UNL     1     151.441 166.892 190.717  0.00  0.00    +0.109 C 
ATOM     91  H   UNL     1     151.168 165.975 191.243  0.00  0.00    +0.074 HD
BRANCH  90  92
ATOM     92  C   UNL     1     150.829 168.099 191.491  0.00  0.00    +0.031 C 
ATOM     93  H   UNL     1     150.333 168.737 190.747  0.00  0.00    +0.037 HD
BRANCH  92  94
ATOM     94  C   UNL     1     151.909 168.969 192.160  0.00  0.00    -0.056 C 
ATOM     95  H   UNL     1     152.319 169.707 191.464  0.00  0.00    +0.023 HD
ATOM     96  H   UNL     1     152.740 168.369 192.541  0.00  0.00    +0.023 HD
ATOM     97  H   UNL     1     151.486 169.530 192.999  0.00  0.00    +0.023 HD
ENDBRANCH  92  94
BRANCH  92  98
ATOM     98  C   UNL     1     149.741 167.708 192.545  0.00  0.00    +0.115 C 
ATOM     99  H   UNL     1     150.139 168.002 193.526  0.00  0.00    +0.074 HD
BRANCH  98 100
ATOM    100  C   UNL     1     148.366 168.406 192.366  0.00  0.00    +0.013 C 
ATOM    101  H   UNL     1     147.627 167.897 192.996  0.00  0.00    +0.038 HD
BRANCH 100 102
ATOM    102  C   UNL     1     147.862 168.374 190.919  0.00  0.00    -0.056 C 
ATOM    103  H   UNL     1     147.120 167.589 190.762  0.00  0.00    +0.024 HD
ATOM    104  H   UNL     1     147.389 169.326 190.656  0.00  0.00    +0.024 HD
ATOM    105  H   UNL     1     148.681 168.198 190.213  0.00  0.00    +0.024 HD
ENDBRANCH 100 102
BRANCH 100 106
ATOM    106  C   UNL     1     148.430 169.856 192.819  0.00  0.00    -0.064 C 
ATOM    107  C   UNL     1     148.677 170.874 191.980  0.00  0.00    -0.005 C 
ATOM    108  H   UNL     1     148.239 170.032 193.872  0.00  0.00    +0.059 HD
ATOM    109  H   UNL     1     148.824 170.648 190.923  0.00  0.00    +0.078 HD
BRANCH 107 110
ATOM    110  N   UNL     1     148.755 172.222 192.295  0.00  0.00    -0.284 N 
ATOM    111  C   UNL     1     148.657 173.271 191.380  0.00  0.00    +0.206 C 
ATOM    112  O   UNL     1     148.479 173.227 190.170  0.00  0.00    -0.279 OA
ATOM    113  H   UNL     1     148.744 174.251 191.876  0.00  0.00    +0.126 HD
BRANCH 110 114
ATOM    114  C   UNL     1     148.911 172.554 193.708  0.00  0.00    +0.007 C 
ATOM    115  H   UNL     1     149.086 173.622 193.858  0.00  0.00    +0.043 HD
ATOM    116  H   UNL     1     147.995 172.274 194.238  0.00  0.00    +0.043 HD
ATOM    117  H   UNL     1     149.755 171.997 194.122  0.00  0.00    +0.043 HD
ENDBRANCH 110 114
ENDBRANCH 107 110
ENDBRANCH 100 106
ENDBRANCH  98 100
BRANCH  98 118
ATOM    118  O   UNL     1     149.520 166.279 192.492  0.00  0.00    -0.461 OA
BRANCH 118 119
ATOM    119  C   UNL     1     149.452 165.630 193.687  0.00  0.00    +0.304 C 
ATOM    120  O   UNL     1     148.485 165.017 194.118  0.00  0.00    -0.251 OA
BRANCH 119 121
ATOM    121  C   UNL     1     150.733 165.799 194.443  0.00  0.00    +0.033 C 
ATOM    122  H   UNL     1     150.989 164.867 194.953  0.00  0.00    +0.034 HD
ATOM    123  H   UNL     1     151.535 166.050 193.745  0.00  0.00    +0.034 HD
ATOM    124  H   UNL     1     150.638 166.620 195.160  0.00  0.00    +0.034 HD
ENDBRANCH 119 121
ENDBRANCH 118 119
ENDBRANCH  98 118
ENDBRANCH  92  98
ENDBRANCH  90  92
BRANCH  90 125
ATOM    125  O   UNL     1     152.876 167.038 190.647  0.00  0.00    -0.459 OA
BRANCH 125 126
ATOM    126  C   UNL     1     153.614 165.894 190.502  0.00  0.00    +0.339 C 
ATOM    127  O   UNL     1     153.565 164.926 191.252  0.00  0.00    -0.248 OA
BRANCH 126 128
ATOM    128  C   UNL     1     154.443 165.964 189.212  0.00  0.00    +0.178 C 
ATOM    129  H   UNL     1     155.497 165.823 189.488  0.00  0.00    +0.074 HD
BRANCH 128 130
ATOM    130  C   UNL     1     154.029 164.793 188.308  0.00  0.00    +0.084 C 
ATOM    131  H   UNL     1     154.073 165.118 187.264  0.00  0.00    +0.059 HD
ATOM    132  H   UNL     1     152.992 164.499 188.507  0.00  0.00    +0.059 HD
BRANCH 130 133
ATOM    133  O   UNL     1     154.852 163.624 188.393  0.00  0.00    -0.380 OA
BRANCH 133 134
ATOM    134  C   UNL     1     154.161 162.462 188.836  0.00  0.00    +0.037 C 
ATOM    135  H   UNL     1     154.492 161.573 188.293  0.00  0.00    +0.052 HD
ATOM    136  H   UNL     1     154.384 162.319 189.898  0.00  0.00    +0.052 HD
ATOM    137  H   UNL     1     153.080 162.596 188.742  0.00  0.00    +0.052 HD
ENDBRANCH 133 134
ENDBRANCH 130 133
ENDBRANCH 128 130
BRANCH 128 138
ATOM    138  O   UNL     1     154.367 167.174 188.455  0.00  0.00    -0.366 OA
BRANCH 138 139
ATOM    139  C   UNL     1     154.140 166.952 187.070  0.00  0.00    +0.038 C 
ATOM    140  H   UNL     1     154.806 166.153 186.743  0.00  0.00    +0.052 HD
ATOM    141  H   UNL     1     153.108 166.637 186.894  0.00  0.00    +0.052 HD
ATOM    142  H   UNL     1     154.362 167.846 186.481  0.00  0.00    +0.052 HD
ENDBRANCH 138 139
ENDBRANCH 128 138
ENDBRANCH 126 128
ENDBRANCH 125 126
ENDBRANCH  90 125
ENDBRANCH  87  90
ENDBRANCH  84  87
ENDBRANCH  78  84
ENDBRANCH  76  78
BRANCH  76 143
ATOM    143  O   UNL     1     150.104 164.649 186.655  0.00  0.00    -0.379 OA
BRANCH 143 144
ATOM    144  C   UNL     1     151.182 164.966 185.782  0.00  0.00    +0.037 C 
ATOM    145  H   UNL     1     152.037 165.270 186.393  0.00  0.00    +0.052 HD
ATOM    146  H   UNL     1     150.915 165.786 185.114  0.00  0.00    +0.052 HD
ATOM    147  H   UNL     1     151.465 164.083 185.200  0.00  0.00    +0.052 HD
ENDBRANCH 143 144
ENDBRANCH  76 143
ENDBRANCH   1  76
TORSDOF 35
ENDMDL
MODEL 5
REMARK VINA RESULT:      -5.6      3.385      8.472
REMARK  Name = Mycalolide B_conf2
REMARK  35 active torsions:
REMARK  status: ('A' for Active; 'I' for Inactive)
REMARK    1  A    between atoms: C_1  and  C_2
REMARK    2  A    between atoms: C_3  and  O_72
REMARK    3  A    between atoms: C_22  and  O_70
REMARK    4  A    between atoms: C_23  and  C_69
REMARK    5  A    between atoms: C_29  and  O_68
REMARK    6  A    between atoms: C_34  and  C_35
REMARK    7  A    between atoms: C_35  and  C_36
REMARK    8  A    between atoms: C_36  and  C_37
REMARK    9  A    between atoms: C_36  and  O_66
REMARK   10  A    between atoms: C_37  and  C_38
REMARK   11  A    between atoms: C_37  and  C_39
REMARK   12  A    between atoms: C_39  and  C_40
REMARK   13  A    between atoms: C_40  and  C_41
REMARK   14  A    between atoms: C_41  and  C_42
REMARK   15  A    between atoms: C_41  and  O_57
REMARK   16  A    between atoms: C_42  and  C_43
REMARK   17  A    between atoms: C_42  and  C_44
REMARK   18  A    between atoms: C_44  and  C_45
REMARK   19  A    between atoms: C_44  and  O_53
REMARK   20  A    between atoms: C_45  and  C_46
REMARK   21  A    between atoms: C_45  and  C_47
REMARK   22  A    between atoms: C_48  and  N_49
REMARK   23  A    between atoms: N_49  and  C_50
REMARK   24  A    between atoms: O_53  and  C_54
REMARK   25  A    between atoms: C_54  and  C_56
REMARK   26  A    between atoms: O_57  and  C_58
REMARK   27  A    between atoms: C_58  and  C_60
REMARK   28  A    between atoms: C_60  and  C_61
REMARK   29  A    between atoms: C_60  and  O_64
REMARK   30  A    between atoms: C_61  and  O_62
REMARK   31  A    between atoms: O_62  and  C_63
REMARK   32  A    between atoms: O_64  and  C_65
REMARK   33  A    between atoms: O_66  and  C_67
REMARK   34  A    between atoms: O_70  and  C_71
REMARK   35  A    between atoms: O_72  and  C_73
REMARK                            x       y       z     vdW  Elec       q    Type
REMARK                         _______ _______ _______ _____ _____    ______ ____
ROOT
ATOM      1  C   UNL     1     152.476 164.960 189.369  0.00  0.00    +0.011 C 
ATOM      2  H   UNL     1     152.149 164.030 188.892  0.00  0.00    +0.033 HD
ATOM      3  H   UNL     1     153.362 164.693 189.944  0.00  0.00    +0.033 HD
ENDROOT
BRANCH   1  36
ATOM      4  C   UNL     1     154.312 166.320 188.047  0.00  0.00    +0.020 C 
ATOM      5  C   UNL     1     155.354 165.175 187.859  0.00  0.00    +0.068 C 
ATOM      6  C   UNL     1     155.077 164.120 186.754  0.00  0.00    -0.008 C 
ATOM      7  C   UNL     1     154.118 163.020 187.112  0.00  0.00    -0.077 C 
ATOM      8  C   UNL     1     154.491 161.837 187.630  0.00  0.00    -0.003 C 
ATOM      9  C   UNL     1     153.520 160.888 188.051  0.00  0.00    +0.220 A 
ATOM     10  N   UNL     1     152.202 161.007 187.959  0.00  0.00    -0.205 NA
ATOM     11  C   UNL     1     151.696 159.883 188.563  0.00  0.00    +0.164 A 
ATOM     12  C   UNL     1     152.719 159.087 188.990  0.00  0.00    +0.125 A 
ATOM     13  O   UNL     1     153.888 159.694 188.652  0.00  0.00    -0.443 OA
ATOM     14  C   UNL     1     150.183 159.566 188.755  0.00  0.00    +0.250 A 
ATOM     15  N   UNL     1     149.209 160.353 188.332  0.00  0.00    -0.203 NA
ATOM     16  C   UNL     1     148.062 159.706 188.721  0.00  0.00    +0.164 A 
ATOM     17  C   UNL     1     148.379 158.545 189.375  0.00  0.00    +0.125 A 
ATOM     18  O   UNL     1     149.735 158.435 189.401  0.00  0.00    -0.442 OA
ATOM     19  C   UNL     1     146.609 160.206 188.464  0.00  0.00    +0.249 A 
ATOM     20  N   UNL     1     146.323 161.323 187.816  0.00  0.00    -0.210 NA
ATOM     21  C   UNL     1     144.947 161.370 187.800  0.00  0.00    +0.109 A 
ATOM     22  C   UNL     1     144.446 160.269 188.454  0.00  0.00    +0.118 A 
ATOM     23  O   UNL     1     145.493 159.519 188.888  0.00  0.00    -0.442 OA
ATOM     24  C   UNL     1     144.225 162.499 187.138  0.00  0.00    +0.113 C 
ATOM     25  C   UNL     1     144.000 163.727 188.052  0.00  0.00    +0.051 C 
ATOM     26  C   UNL     1     144.616 164.944 187.367  0.00  0.00    +0.161 C 
ATOM     27  O   UNL     1     143.903 165.785 186.817  0.00  0.00    -0.292 OA
ATOM     28  C   UNL     1     146.103 165.074 187.330  0.00  0.00    -0.023 C 
ATOM     29  C   UNL     1     146.686 165.909 186.451  0.00  0.00    -0.078 C 
ATOM     30  C   UNL     1     148.167 166.147 186.334  0.00  0.00    -0.008 C 
ATOM     31  C   UNL     1     149.025 164.879 186.134  0.00  0.00    +0.069 C 
ATOM     32  C   UNL     1     150.418 165.190 185.582  0.00  0.00    +0.071 C 
ATOM     33  C   UNL     1     151.194 166.104 186.499  0.00  0.00    +0.310 C 
ATOM     34  O   UNL     1     150.901 167.268 186.729  0.00  0.00    -0.251 OA
ATOM     35  O   UNL     1     152.249 165.434 187.040  0.00  0.00    -0.461 OA
ATOM     36  C   UNL     1     152.817 165.969 188.259  0.00  0.00    +0.110 C 
ATOM     37  H   UNL     1     154.605 166.874 188.945  0.00  0.00    +0.036 HD
ATOM     38  H   UNL     1     156.296 165.653 187.555  0.00  0.00    +0.060 HD
ATOM     39  H   UNL     1     156.039 163.650 186.507  0.00  0.00    +0.033 HD
ATOM     40  H   UNL     1     154.745 164.606 185.829  0.00  0.00    +0.033 HD
ATOM     41  H   UNL     1     153.058 163.218 186.973  0.00  0.00    +0.057 HD
ATOM     42  H   UNL     1     155.535 161.608 187.813  0.00  0.00    +0.067 HD
ATOM     43  H   UNL     1     152.795 158.125 189.481  0.00  0.00    +0.105 HD
ATOM     44  H   UNL     1     147.815 157.751 189.840  0.00  0.00    +0.105 HD
ATOM     45  H   UNL     1     143.455 159.901 188.674  0.00  0.00    +0.105 HD
ATOM     46  H   UNL     1     144.830 162.800 186.269  0.00  0.00    +0.067 HD
ATOM     47  H   UNL     1     142.924 163.945 188.096  0.00  0.00    +0.041 HD
ATOM     48  H   UNL     1     146.694 164.473 188.015  0.00  0.00    +0.065 HD
ATOM     49  H   UNL     1     146.054 166.486 185.768  0.00  0.00    +0.057 HD
ATOM     50  H   UNL     1     148.315 166.814 185.478  0.00  0.00    +0.033 HD
ATOM     51  H   UNL     1     148.478 166.688 187.235  0.00  0.00    +0.033 HD
ATOM     52  H   UNL     1     148.517 164.213 185.425  0.00  0.00    +0.060 HD
ATOM     53  H   UNL     1     150.360 165.671 184.600  0.00  0.00    +0.040 HD
ATOM     54  H   UNL     1     150.979 164.257 185.447  0.00  0.00    +0.040 HD
ATOM     55  H   UNL     1     152.314 166.916 188.504  0.00  0.00    +0.074 HD
BRANCH   4  56
ATOM     56  C   UNL     1     154.436 167.316 186.879  0.00  0.00    -0.057 C 
ATOM     57  H   UNL     1     155.483 167.441 186.585  0.00  0.00    +0.023 HD
ATOM     58  H   UNL     1     154.064 168.303 187.173  0.00  0.00    +0.023 HD
ATOM     59  H   UNL     1     153.876 166.993 185.998  0.00  0.00    +0.023 HD
ENDBRANCH   4  56
BRANCH  25  60
ATOM     60  C   UNL     1     144.461 163.624 189.505  0.00  0.00    -0.053 C 
ATOM     61  H   UNL     1     144.638 162.581 189.783  0.00  0.00    +0.024 HD
ATOM     62  H   UNL     1     145.377 164.187 189.704  0.00  0.00    +0.024 HD
ATOM     63  H   UNL     1     143.699 164.018 190.185  0.00  0.00    +0.024 HD
ENDBRANCH  25  60
BRANCH  31  64
ATOM     64  O   UNL     1     149.141 164.174 187.372  0.00  0.00    -0.391 OA
ATOM     65  H   UNL     1     150.071 163.888 187.475  0.00  0.00    +0.210 HD
ENDBRANCH  31  64
BRANCH  24  66
ATOM     66  O   UNL     1     142.934 162.080 186.638  0.00  0.00    -0.373 OA
BRANCH  66  67
ATOM     67  C   UNL     1     142.738 162.435 185.271  0.00  0.00    +0.037 C 
ATOM     68  H   UNL     1     142.200 163.386 185.188  0.00  0.00    +0.052 HD
ATOM     69  H   UNL     1     143.719 162.541 184.792  0.00  0.00    +0.052 HD
ATOM     70  H   UNL     1     142.184 161.641 184.750  0.00  0.00    +0.052 HD
ENDBRANCH  66  67
ENDBRANCH  24  66
BRANCH   5  71
ATOM     71  O   UNL     1     155.632 164.470 189.080  0.00  0.00    -0.379 OA
BRANCH  71  72
ATOM     72  C   UNL     1     156.652 165.051 189.879  0.00  0.00    +0.037 C 
ATOM     73  H   UNL     1     156.947 164.362 190.673  0.00  0.00    +0.052 HD
ATOM     74  H   UNL     1     156.245 165.956 190.341  0.00  0.00    +0.052 HD
ATOM     75  H   UNL     1     157.523 165.337 189.286  0.00  0.00    +0.052 HD
ENDBRANCH  71  72
ENDBRANCH   5  71
ENDBRANCH   1  36
BRANCH   1  76
ATOM     76  C   UNL     1     151.386 165.457 190.337  0.00  0.00    +0.064 C 
ATOM     77  H   UNL     1     150.908 164.599 190.826  0.00  0.00    +0.060 HD
BRANCH  76  78
ATOM     78  C   UNL     1     152.036 166.356 191.440  0.00  0.00    -0.017 C 
ATOM     79  H   UNL     1     151.557 166.112 192.401  0.00  0.00    +0.032 HD
BRANCH  78  80
ATOM     80  C   UNL     1     153.530 166.088 191.630  0.00  0.00    -0.060 C 
ATOM     81  H   UNL     1     153.836 165.179 191.102  0.00  0.00    +0.023 HD
ATOM     82  H   UNL     1     153.787 165.978 192.686  0.00  0.00    +0.023 HD
ATOM     83  H   UNL     1     154.138 166.897 191.211  0.00  0.00    +0.023 HD
ENDBRANCH  78  80
BRANCH  78  84
ATOM     84  C   UNL     1     151.742 167.845 191.104  0.00  0.00    -0.045 C 
ATOM     85  H   UNL     1     152.685 168.392 191.028  0.00  0.00    +0.027 HD
ATOM     86  H   UNL     1     151.308 167.889 190.098  0.00  0.00    +0.027 HD
BRANCH  84  87
ATOM     87  C   UNL     1     150.752 168.561 192.031  0.00  0.00    -0.015 C 
ATOM     88  H   UNL     1     151.334 168.868 192.911  0.00  0.00    +0.030 HD
ATOM     89  H   UNL     1     150.390 169.477 191.551  0.00  0.00    +0.030 HD
BRANCH  87  90
ATOM     90  C   UNL     1     149.567 167.701 192.523  0.00  0.00    +0.109 C 
ATOM     91  H   UNL     1     149.461 166.862 191.834  0.00  0.00    +0.074 HD
BRANCH  90  92
ATOM     92  C   UNL     1     148.235 168.512 192.515  0.00  0.00    +0.031 C 
ATOM     93  H   UNL     1     148.152 168.999 193.496  0.00  0.00    +0.037 HD
BRANCH  92  94
ATOM     94  C   UNL     1     147.002 167.600 192.377  0.00  0.00    -0.056 C 
ATOM     95  H   UNL     1     146.589 167.331 193.354  0.00  0.00    +0.023 HD
ATOM     96  H   UNL     1     147.234 166.674 191.843  0.00  0.00    +0.023 HD
ATOM     97  H   UNL     1     146.205 168.113 191.829  0.00  0.00    +0.023 HD
ENDBRANCH  92  94
BRANCH  92  98
ATOM     98  C   UNL     1     148.174 169.646 191.441  0.00  0.00    +0.115 C 
ATOM     99  H   UNL     1     149.148 169.644 190.931  0.00  0.00    +0.074 HD
BRANCH  98 100
ATOM    100  C   UNL     1     147.075 169.474 190.358  0.00  0.00    +0.013 C 
ATOM    101  H   UNL     1     146.303 168.798 190.744  0.00  0.00    +0.038 HD
BRANCH 100 102
ATOM    102  C   UNL     1     147.610 168.887 189.048  0.00  0.00    -0.056 C 
ATOM    103  H   UNL     1     147.190 169.389 188.174  0.00  0.00    +0.024 HD
ATOM    104  H   UNL     1     148.698 168.997 188.993  0.00  0.00    +0.024 HD
ATOM    105  H   UNL     1     147.374 167.820 188.960  0.00  0.00    +0.024 HD
ENDBRANCH 100 102
BRANCH 100 106
ATOM    106  C   UNL     1     146.404 170.803 190.048  0.00  0.00    -0.064 C 
ATOM    107  C   UNL     1     145.507 170.957 189.062  0.00  0.00    -0.005 C 
ATOM    108  H   UNL     1     146.676 171.632 190.693  0.00  0.00    +0.059 HD
ATOM    109  H   UNL     1     145.239 170.084 188.466  0.00  0.00    +0.078 HD
BRANCH 107 110
ATOM    110  N   UNL     1     144.845 172.122 188.704  0.00  0.00    -0.284 N 
ATOM    111  C   UNL     1     145.184 172.943 187.627  0.00  0.00    +0.206 C 
ATOM    112  O   UNL     1     146.082 172.811 186.808  0.00  0.00    -0.279 OA
ATOM    113  H   UNL     1     144.503 173.806 187.546  0.00  0.00    +0.126 HD
BRANCH 110 114
ATOM    114  C   UNL     1     143.677 172.481 189.502  0.00  0.00    +0.007 C 
ATOM    115  H   UNL     1     143.905 173.267 190.227  0.00  0.00    +0.043 HD
ATOM    116  H   UNL     1     142.891 172.843 188.833  0.00  0.00    +0.043 HD
ATOM    117  H   UNL     1     143.319 171.600 190.040  0.00  0.00    +0.043 HD
ENDBRANCH 110 114
ENDBRANCH 107 110
ENDBRANCH 100 106
ENDBRANCH  98 100
BRANCH  98 118
ATOM    118  O   UNL     1     147.948 170.914 192.100  0.00  0.00    -0.461 OA
BRANCH 118 119
ATOM    119  C   UNL     1     148.957 171.824 192.031  0.00  0.00    +0.304 C 
ATOM    120  O   UNL     1     149.454 172.271 191.006  0.00  0.00    -0.251 OA
BRANCH 119 121
ATOM    121  C   UNL     1     149.421 172.190 193.406  0.00  0.00    +0.033 C 
ATOM    122  H   UNL     1     149.408 173.275 193.527  0.00  0.00    +0.034 HD
ATOM    123  H   UNL     1     148.750 171.745 194.145  0.00  0.00    +0.034 HD
ATOM    124  H   UNL     1     150.426 171.793 193.579  0.00  0.00    +0.034 HD
ENDBRANCH 119 121
ENDBRANCH 118 119
ENDBRANCH  98 118
ENDBRANCH  92  98
ENDBRANCH  90  92
BRANCH  90 125
ATOM    125  O   UNL     1     149.844 167.236 193.862  0.00  0.00    -0.459 OA
BRANCH 125 126
ATOM    126  C   UNL     1     149.387 165.989 194.196  0.00  0.00    +0.339 C 
ATOM    127  O   UNL     1     149.278 165.049 193.418  0.00  0.00    -0.248 OA
BRANCH 126 128
ATOM    128  C   UNL     1     149.118 165.915 195.705  0.00  0.00    +0.178 C 
ATOM    129  H   UNL     1     149.699 166.715 196.185  0.00  0.00    +0.074 HD
BRANCH 128 130
ATOM    130  C   UNL     1     147.628 166.203 195.944  0.00  0.00    +0.084 C 
ATOM    131  H   UNL     1     147.273 166.899 195.177  0.00  0.00    +0.059 HD
ATOM    132  H   UNL     1     147.479 166.692 196.913  0.00  0.00    +0.059 HD
BRANCH 130 133
ATOM    133  O   UNL     1     146.759 165.066 195.877  0.00  0.00    -0.380 OA
BRANCH 133 134
ATOM    134  C   UNL     1     145.858 165.092 194.777  0.00  0.00    +0.037 C 
ATOM    135  H   UNL     1     146.160 164.386 193.999  0.00  0.00    +0.052 HD
ATOM    136  H   UNL     1     144.869 164.800 195.141  0.00  0.00    +0.052 HD
ATOM    137  H   UNL     1     145.773 166.105 194.371  0.00  0.00    +0.052 HD
ENDBRANCH 133 134
ENDBRANCH 130 133
ENDBRANCH 128 130
BRANCH 128 138
ATOM    138  O   UNL     1     149.459 164.696 196.369  0.00  0.00    -0.366 OA
BRANCH 138 139
ATOM    139  C   UNL     1     150.837 164.366 196.256  0.00  0.00    +0.038 C 
ATOM    140  H   UNL     1     151.304 164.539 197.226  0.00  0.00    +0.052 HD
ATOM    141  H   UNL     1     150.961 163.312 195.995  0.00  0.00    +0.052 HD
ATOM    142  H   UNL     1     151.338 164.996 195.516  0.00  0.00    +0.052 HD
ENDBRANCH 138 139
ENDBRANCH 128 138
ENDBRANCH 126 128
ENDBRANCH 125 126
ENDBRANCH  90 125
ENDBRANCH  87  90
ENDBRANCH  84  87
ENDBRANCH  78  84
ENDBRANCH  76  78
BRANCH  76 143
ATOM    143  O   UNL     1     150.422 166.180 189.559  0.00  0.00    -0.379 OA
BRANCH 143 144
ATOM    144  C   UNL     1     149.082 165.816 189.872  0.00  0.00    +0.037 C 
ATOM    145  H   UNL     1     148.854 166.186 190.876  0.00  0.00    +0.052 HD
ATOM    146  H   UNL     1     148.958 164.732 189.858  0.00  0.00    +0.052 HD
ATOM    147  H   UNL     1     148.392 166.283 189.163  0.00  0.00    +0.052 HD
ENDBRANCH 143 144
ENDBRANCH  76 143
ENDBRANCH   1  76
TORSDOF 35
ENDMDL
MODEL 6
REMARK VINA RESULT:      -5.6      3.887      9.615
REMARK  Name = Mycalolide B_conf2
REMARK  35 active torsions:
REMARK  status: ('A' for Active; 'I' for Inactive)
REMARK    1  A    between atoms: C_1  and  C_2
REMARK    2  A    between atoms: C_3  and  O_72
REMARK    3  A    between atoms: C_22  and  O_70
REMARK    4  A    between atoms: C_23  and  C_69
REMARK    5  A    between atoms: C_29  and  O_68
REMARK    6  A    between atoms: C_34  and  C_35
REMARK    7  A    between atoms: C_35  and  C_36
REMARK    8  A    between atoms: C_36  and  C_37
REMARK    9  A    between atoms: C_36  and  O_66
REMARK   10  A    between atoms: C_37  and  C_38
REMARK   11  A    between atoms: C_37  and  C_39
REMARK   12  A    between atoms: C_39  and  C_40
REMARK   13  A    between atoms: C_40  and  C_41
REMARK   14  A    between atoms: C_41  and  C_42
REMARK   15  A    between atoms: C_41  and  O_57
REMARK   16  A    between atoms: C_42  and  C_43
REMARK   17  A    between atoms: C_42  and  C_44
REMARK   18  A    between atoms: C_44  and  C_45
REMARK   19  A    between atoms: C_44  and  O_53
REMARK   20  A    between atoms: C_45  and  C_46
REMARK   21  A    between atoms: C_45  and  C_47
REMARK   22  A    between atoms: C_48  and  N_49
REMARK   23  A    between atoms: N_49  and  C_50
REMARK   24  A    between atoms: O_53  and  C_54
REMARK   25  A    between atoms: C_54  and  C_56
REMARK   26  A    between atoms: O_57  and  C_58
REMARK   27  A    between atoms: C_58  and  C_60
REMARK   28  A    between atoms: C_60  and  C_61
REMARK   29  A    between atoms: C_60  and  O_64
REMARK   30  A    between atoms: C_61  and  O_62
REMARK   31  A    between atoms: O_62  and  C_63
REMARK   32  A    between atoms: O_64  and  C_65
REMARK   33  A    between atoms: O_66  and  C_67
REMARK   34  A    between atoms: O_70  and  C_71
REMARK   35  A    between atoms: O_72  and  C_73
REMARK                            x       y       z     vdW  Elec       q    Type
REMARK                         _______ _______ _______ _____ _____    ______ ____
ROOT
ATOM      1  C   UNL     1     151.723 163.493 188.356  0.00  0.00    +0.011 C 
ATOM      2  H   UNL     1     150.751 163.106 188.036  0.00  0.00    +0.033 HD
ATOM      3  H   UNL     1     152.128 162.735 189.026  0.00  0.00    +0.033 HD
ENDROOT
BRANCH   1  36
ATOM      4  C   UNL     1     154.005 162.992 187.126  0.00  0.00    +0.020 C 
ATOM      5  C   UNL     1     154.136 161.483 187.493  0.00  0.00    +0.068 C 
ATOM      6  C   UNL     1     153.273 160.467 186.697  0.00  0.00    -0.008 C 
ATOM      7  C   UNL     1     151.844 160.322 187.138  0.00  0.00    -0.077 C 
ATOM      8  C   UNL     1     151.423 159.414 188.035  0.00  0.00    -0.003 C 
ATOM      9  C   UNL     1     150.076 159.410 188.490  0.00  0.00    +0.220 A 
ATOM     10  N   UNL     1     149.101 160.216 188.090  0.00  0.00    -0.205 NA
ATOM     11  C   UNL     1     148.018 159.882 188.864  0.00  0.00    +0.164 A 
ATOM     12  C   UNL     1     148.347 158.859 189.705  0.00  0.00    +0.125 A 
ATOM     13  O   UNL     1     149.644 158.526 189.466  0.00  0.00    -0.443 OA
ATOM     14  C   UNL     1     146.624 160.575 188.812  0.00  0.00    +0.250 A 
ATOM     15  N   UNL     1     146.327 161.566 187.988  0.00  0.00    -0.203 NA
ATOM     16  C   UNL     1     145.024 161.876 188.291  0.00  0.00    +0.164 A 
ATOM     17  C   UNL     1     144.572 161.063 189.297  0.00  0.00    +0.125 A 
ATOM     18  O   UNL     1     145.582 160.219 189.640  0.00  0.00    -0.442 OA
ATOM     19  C   UNL     1     144.173 162.984 187.601  0.00  0.00    +0.249 A 
ATOM     20  N   UNL     1     144.622 163.748 186.620  0.00  0.00    -0.210 NA
ATOM     21  C   UNL     1     143.558 164.560 186.299  0.00  0.00    +0.109 A 
ATOM     22  C   UNL     1     142.494 164.258 187.115  0.00  0.00    +0.118 A 
ATOM     23  O   UNL     1     142.871 163.258 187.954  0.00  0.00    -0.442 OA
ATOM     24  C   UNL     1     143.669 165.576 185.209  0.00  0.00    +0.113 C 
ATOM     25  C   UNL     1     144.239 166.939 185.672  0.00  0.00    +0.051 C 
ATOM     26  C   UNL     1     145.466 167.251 184.819  0.00  0.00    +0.161 C 
ATOM     27  O   UNL     1     145.410 168.088 183.917  0.00  0.00    -0.292 OA
ATOM     28  C   UNL     1     146.726 166.488 185.063  0.00  0.00    -0.023 C 
ATOM     29  C   UNL     1     147.694 166.467 184.130  0.00  0.00    -0.078 C 
ATOM     30  C   UNL     1     149.015 165.759 184.268  0.00  0.00    -0.008 C 
ATOM     31  C   UNL     1     148.926 164.258 184.619  0.00  0.00    +0.069 C 
ATOM     32  C   UNL     1     150.220 163.501 184.311  0.00  0.00    +0.071 C 
ATOM     33  C   UNL     1     151.393 164.061 185.076  0.00  0.00    +0.310 C 
ATOM     34  O   UNL     1     151.869 165.174 184.902  0.00  0.00    -0.251 OA
ATOM     35  O   UNL     1     151.825 163.154 185.995  0.00  0.00    -0.461 OA
ATOM     36  C   UNL     1     152.605 163.658 187.106  0.00  0.00    +0.110 C 
ATOM     37  H   UNL     1     154.576 163.554 187.874  0.00  0.00    +0.036 HD
ATOM     38  H   UNL     1     155.175 161.194 187.275  0.00  0.00    +0.060 HD
ATOM     39  H   UNL     1     153.750 159.484 186.803  0.00  0.00    +0.033 HD
ATOM     40  H   UNL     1     153.301 160.691 185.624  0.00  0.00    +0.033 HD
ATOM     41  H   UNL     1     151.122 161.024 186.727  0.00  0.00    +0.057 HD
ATOM     42  H   UNL     1     152.113 158.714 188.492  0.00  0.00    +0.067 HD
ATOM     43  H   UNL     1     147.825 158.274 190.452  0.00  0.00    +0.105 HD
ATOM     44  H   UNL     1     143.643 160.959 189.836  0.00  0.00    +0.105 HD
ATOM     45  H   UNL     1     141.483 164.626 187.214  0.00  0.00    +0.105 HD
ATOM     46  H   UNL     1     144.330 165.149 184.440  0.00  0.00    +0.067 HD
ATOM     47  H   UNL     1     143.517 167.729 185.423  0.00  0.00    +0.041 HD
ATOM     48  H   UNL     1     146.832 165.947 185.999  0.00  0.00    +0.065 HD
ATOM     49  H   UNL     1     147.541 167.014 183.195  0.00  0.00    +0.057 HD
ATOM     50  H   UNL     1     149.536 165.868 183.311  0.00  0.00    +0.033 HD
ATOM     51  H   UNL     1     149.593 166.301 185.025  0.00  0.00    +0.033 HD
ATOM     52  H   UNL     1     148.115 163.803 184.035  0.00  0.00    +0.060 HD
ATOM     53  H   UNL     1     150.463 163.546 183.244  0.00  0.00    +0.040 HD
ATOM     54  H   UNL     1     150.098 162.441 184.566  0.00  0.00    +0.040 HD
ATOM     55  H   UNL     1     152.781 164.734 186.963  0.00  0.00    +0.074 HD
BRANCH   4  56
ATOM     56  C   UNL     1     154.706 163.251 185.780  0.00  0.00    -0.057 C 
ATOM     57  H   UNL     1     155.453 164.045 185.877  0.00  0.00    +0.023 HD
ATOM     58  H   UNL     1     153.984 163.579 185.026  0.00  0.00    +0.023 HD
ATOM     59  H   UNL     1     155.210 162.360 185.398  0.00  0.00    +0.023 HD
ENDBRANCH   4  56
BRANCH  25  60
ATOM     60  C   UNL     1     144.546 167.113 187.159  0.00  0.00    -0.053 C 
ATOM     61  H   UNL     1     143.949 167.923 187.586  0.00  0.00    +0.024 HD
ATOM     62  H   UNL     1     144.356 166.208 187.743  0.00  0.00    +0.024 HD
ATOM     63  H   UNL     1     145.599 167.367 187.312  0.00  0.00    +0.024 HD
ENDBRANCH  25  60
BRANCH  31  64
ATOM     64  O   UNL     1     148.593 164.105 186.001  0.00  0.00    -0.391 OA
ATOM     65  H   UNL     1     149.424 164.110 186.518  0.00  0.00    +0.210 HD
ENDBRANCH  31  64
BRANCH  24  66
ATOM     66  O   UNL     1     142.388 165.824 184.586  0.00  0.00    -0.373 OA
BRANCH  66  67
ATOM     67  C   UNL     1     142.439 165.694 183.166  0.00  0.00    +0.037 C 
ATOM     68  H   UNL     1     142.544 166.675 182.688  0.00  0.00    +0.052 HD
ATOM     69  H   UNL     1     143.307 165.078 182.902  0.00  0.00    +0.052 HD
ATOM     70  H   UNL     1     141.534 165.191 182.800  0.00  0.00    +0.052 HD
ENDBRANCH  66  67
ENDBRANCH  24  66
BRANCH   5  71
ATOM     71  O   UNL     1     153.932 161.231 188.894  0.00  0.00    -0.379 OA
BRANCH  71  72
ATOM     72  C   UNL     1     154.783 160.238 189.446  0.00  0.00    +0.037 C 
ATOM     73  H   UNL     1     155.277 160.621 190.342  0.00  0.00    +0.052 HD
ATOM     74  H   UNL     1     155.551 160.000 188.704  0.00  0.00    +0.052 HD
ATOM     75  H   UNL     1     154.241 159.319 189.678  0.00  0.00    +0.052 HD
ENDBRANCH  71  72
ENDBRANCH   5  71
ENDBRANCH   1  36
BRANCH   1  76
ATOM     76  C   UNL     1     151.528 164.801 189.146  0.00  0.00    +0.064 C 
ATOM     77  H   UNL     1     150.552 164.786 189.649  0.00  0.00    +0.060 HD
BRANCH  76  78
ATOM     78  C   UNL     1     152.643 164.927 190.234  0.00  0.00    -0.017 C 
ATOM     79  H   UNL     1     153.092 163.932 190.377  0.00  0.00    +0.032 HD
BRANCH  78  80
ATOM     80  C   UNL     1     153.788 165.852 189.816  0.00  0.00    -0.060 C 
ATOM     81  H   UNL     1     153.865 166.711 190.489  0.00  0.00    +0.023 HD
ATOM     82  H   UNL     1     153.654 166.222 188.796  0.00  0.00    +0.023 HD
ATOM     83  H   UNL     1     154.755 165.340 189.870  0.00  0.00    +0.023 HD
ENDBRANCH  78  80
BRANCH  78  84
ATOM     84  C   UNL     1     151.986 165.371 191.571  0.00  0.00    -0.045 C 
ATOM     85  H   UNL     1     151.272 164.610 191.894  0.00  0.00    +0.027 HD
ATOM     86  H   UNL     1     152.761 165.376 192.347  0.00  0.00    +0.027 HD
BRANCH  84  87
ATOM     87  C   UNL     1     151.358 166.770 191.582  0.00  0.00    -0.015 C 
ATOM     88  H   UNL     1     151.933 167.352 192.315  0.00  0.00    +0.030 HD
ATOM     89  H   UNL     1     151.503 167.249 190.607  0.00  0.00    +0.030 HD
BRANCH  87  90
ATOM     90  C   UNL     1     149.871 166.823 191.997  0.00  0.00    +0.109 C 
ATOM     91  H   UNL     1     149.397 165.908 191.639  0.00  0.00    +0.074 HD
BRANCH  90  92
ATOM     92  C   UNL     1     149.143 168.037 191.345  0.00  0.00    +0.031 C 
ATOM     93  H   UNL     1     149.836 168.471 190.612  0.00  0.00    +0.037 HD
BRANCH  92  94
ATOM     94  C   UNL     1     148.838 169.149 192.367  0.00  0.00    -0.056 C 
ATOM     95  H   UNL     1     147.768 169.375 192.408  0.00  0.00    +0.023 HD
ATOM     96  H   UNL     1     149.369 170.076 192.133  0.00  0.00    +0.023 HD
ATOM     97  H   UNL     1     149.132 168.836 193.373  0.00  0.00    +0.023 HD
ENDBRANCH  92  94
BRANCH  92  98
ATOM     98  C   UNL     1     147.837 167.667 190.566  0.00  0.00    +0.115 C 
ATOM     99  H   UNL     1     148.088 167.718 189.498  0.00  0.00    +0.074 HD
BRANCH  98 100
ATOM    100  C   UNL     1     147.278 166.247 190.852  0.00  0.00    +0.013 C 
ATOM    101  H   UNL     1     148.060 165.649 191.332  0.00  0.00    +0.038 HD
BRANCH 100 102
ATOM    102  C   UNL     1     146.827 165.514 189.584  0.00  0.00    -0.056 C 
ATOM    103  H   UNL     1     146.047 166.060 189.051  0.00  0.00    +0.024 HD
ATOM    104  H   UNL     1     147.667 165.390 188.892  0.00  0.00    +0.024 HD
ATOM    105  H   UNL     1     146.432 164.518 189.815  0.00  0.00    +0.024 HD
ENDBRANCH 100 102
BRANCH 100 106
ATOM    106  C   UNL     1     146.099 166.311 191.811  0.00  0.00    -0.064 C 
ATOM    107  C   UNL     1     144.852 165.961 191.461  0.00  0.00    -0.005 C 
ATOM    108  H   UNL     1     146.327 166.638 192.820  0.00  0.00    +0.059 HD
ATOM    109  H   UNL     1     144.682 165.602 190.445  0.00  0.00    +0.078 HD
BRANCH 107 110
ATOM    110  N   UNL     1     143.718 165.984 192.259  0.00  0.00    -0.284 N 
ATOM    111  C   UNL     1     142.403 165.964 191.792  0.00  0.00    +0.206 C 
ATOM    112  O   UNL     1     141.993 165.914 190.641  0.00  0.00    -0.279 OA
ATOM    113  H   UNL     1     141.678 165.984 192.622  0.00  0.00    +0.126 HD
BRANCH 110 114
ATOM    114  C   UNL     1     143.936 165.987 193.702  0.00  0.00    +0.007 C 
ATOM    115  H   UNL     1     143.022 165.744 194.252  0.00  0.00    +0.043 HD
ATOM    116  H   UNL     1     144.697 165.240 193.945  0.00  0.00    +0.043 HD
ATOM    117  H   UNL     1     144.283 166.975 194.017  0.00  0.00    +0.043 HD
ENDBRANCH 110 114
ENDBRANCH 107 110
ENDBRANCH 100 106
ENDBRANCH  98 100
BRANCH  98 118
ATOM    118  O   UNL     1     146.802 168.622 190.894  0.00  0.00    -0.461 OA
BRANCH 118 119
ATOM    119  C   UNL     1     146.244 169.295 189.850  0.00  0.00    +0.304 C 
ATOM    120  O   UNL     1     146.835 169.706 188.860  0.00  0.00    -0.251 OA
BRANCH 119 121
ATOM    121  C   UNL     1     144.782 169.507 190.091  0.00  0.00    +0.033 C 
ATOM    122  H   UNL     1     144.273 168.543 190.168  0.00  0.00    +0.034 HD
ATOM    123  H   UNL     1     144.645 170.053 191.029  0.00  0.00    +0.034 HD
ATOM    124  H   UNL     1     144.353 170.109 189.284  0.00  0.00    +0.034 HD
ENDBRANCH 119 121
ENDBRANCH 118 119
ENDBRANCH  98 118
ENDBRANCH  92  98
ENDBRANCH  90  92
BRANCH  90 125
ATOM    125  O   UNL     1     149.785 166.920 193.435  0.00  0.00    -0.459 OA
BRANCH 125 126
ATOM    126  C   UNL     1     149.510 165.768 194.123  0.00  0.00    +0.339 C 
ATOM    127  O   UNL     1     148.702 164.917 193.774  0.00  0.00    -0.248 OA
BRANCH 126 128
ATOM    128  C   UNL     1     150.429 165.657 195.347  0.00  0.00    +0.178 C 
ATOM    129  H   UNL     1     151.084 166.539 195.352  0.00  0.00    +0.074 HD
BRANCH 128 130
ATOM    130  C   UNL     1     149.558 165.707 196.611  0.00  0.00    +0.084 C 
ATOM    131  H   UNL     1     150.154 166.106 197.438  0.00  0.00    +0.059 HD
ATOM    132  H   UNL     1     149.241 164.699 196.903  0.00  0.00    +0.059 HD
BRANCH 130 133
ATOM    133  O   UNL     1     148.393 166.537 196.528  0.00  0.00    -0.380 OA
BRANCH 133 134
ATOM    134  C   UNL     1     147.175 165.849 196.782  0.00  0.00    +0.037 C 
ATOM    135  H   UNL     1     147.253 165.217 197.670  0.00  0.00    +0.052 HD
ATOM    136  H   UNL     1     146.394 166.595 196.959  0.00  0.00    +0.052 HD
ATOM    137  H   UNL     1     146.875 165.260 195.910  0.00  0.00    +0.052 HD
ENDBRANCH 133 134
ENDBRANCH 130 133
ENDBRANCH 128 130
BRANCH 128 138
ATOM    138  O   UNL     1     151.276 164.507 195.423  0.00  0.00    -0.366 OA
BRANCH 138 139
ATOM    139  C   UNL     1     150.987 163.673 196.537  0.00  0.00    +0.038 C 
ATOM    140  H   UNL     1     151.900 163.569 197.125  0.00  0.00    +0.052 HD
ATOM    141  H   UNL     1     150.218 164.126 197.168  0.00  0.00    +0.052 HD
ATOM    142  H   UNL     1     150.669 162.677 196.217  0.00  0.00    +0.052 HD
ENDBRANCH 138 139
ENDBRANCH 128 138
ENDBRANCH 126 128
ENDBRANCH 125 126
ENDBRANCH  90 125
ENDBRANCH  87  90
ENDBRANCH  84  87
ENDBRANCH  78  84
ENDBRANCH  76  78
BRANCH  76 143
ATOM    143  O   UNL     1     151.578 165.880 188.203  0.00  0.00    -0.379 OA
BRANCH 143 144
ATOM    144  C   UNL     1     150.309 166.493 188.005  0.00  0.00    +0.037 C 
ATOM    145  H   UNL     1     149.670 166.237 188.855  0.00  0.00    +0.052 HD
ATOM    146  H   UNL     1     149.840 166.134 187.088  0.00  0.00    +0.052 HD
ATOM    147  H   UNL     1     150.421 167.582 187.968  0.00  0.00    +0.052 HD
ENDBRANCH 143 144
ENDBRANCH  76 143
ENDBRANCH   1  76
TORSDOF 35
ENDMDL
MODEL 7
REMARK VINA RESULT:      -5.6      4.984     12.376
REMARK  Name = Mycalolide B_conf2
REMARK  35 active torsions:
REMARK  status: ('A' for Active; 'I' for Inactive)
REMARK    1  A    between atoms: C_1  and  C_2
REMARK    2  A    between atoms: C_3  and  O_72
REMARK    3  A    between atoms: C_22  and  O_70
REMARK    4  A    between atoms: C_23  and  C_69
REMARK    5  A    between atoms: C_29  and  O_68
REMARK    6  A    between atoms: C_34  and  C_35
REMARK    7  A    between atoms: C_35  and  C_36
REMARK    8  A    between atoms: C_36  and  C_37
REMARK    9  A    between atoms: C_36  and  O_66
REMARK   10  A    between atoms: C_37  and  C_38
REMARK   11  A    between atoms: C_37  and  C_39
REMARK   12  A    between atoms: C_39  and  C_40
REMARK   13  A    between atoms: C_40  and  C_41
REMARK   14  A    between atoms: C_41  and  C_42
REMARK   15  A    between atoms: C_41  and  O_57
REMARK   16  A    between atoms: C_42  and  C_43
REMARK   17  A    between atoms: C_42  and  C_44
REMARK   18  A    between atoms: C_44  and  C_45
REMARK   19  A    between atoms: C_44  and  O_53
REMARK   20  A    between atoms: C_45  and  C_46
REMARK   21  A    between atoms: C_45  and  C_47
REMARK   22  A    between atoms: C_48  and  N_49
REMARK   23  A    between atoms: N_49  and  C_50
REMARK   24  A    between atoms: O_53  and  C_54
REMARK   25  A    between atoms: C_54  and  C_56
REMARK   26  A    between atoms: O_57  and  C_58
REMARK   27  A    between atoms: C_58  and  C_60
REMARK   28  A    between atoms: C_60  and  C_61
REMARK   29  A    between atoms: C_60  and  O_64
REMARK   30  A    between atoms: C_61  and  O_62
REMARK   31  A    between atoms: O_62  and  C_63
REMARK   32  A    between atoms: O_64  and  C_65
REMARK   33  A    between atoms: O_66  and  C_67
REMARK   34  A    between atoms: O_70  and  C_71
REMARK   35  A    between atoms: O_72  and  C_73
REMARK                            x       y       z     vdW  Elec       q    Type
REMARK                         _______ _______ _______ _____ _____    ______ ____
ROOT
ATOM      1  C   UNL     1     145.754 167.448 189.374  0.00  0.00    +0.011 C 
ATOM      2  H   UNL     1     144.961 168.139 189.071  0.00  0.00    +0.033 HD
ATOM      3  H   UNL     1     145.818 167.541 190.458  0.00  0.00    +0.033 HD
ENDROOT
BRANCH   1  36
ATOM      4  C   UNL     1     144.923 165.047 190.090  0.00  0.00    +0.020 C 
ATOM      5  C   UNL     1     143.851 165.478 191.137  0.00  0.00    +0.068 C 
ATOM      6  C   UNL     1     142.487 165.992 190.604  0.00  0.00    -0.008 C 
ATOM      7  C   UNL     1     142.446 167.426 190.156  0.00  0.00    -0.077 C 
ATOM      8  C   UNL     1     142.102 168.453 190.953  0.00  0.00    -0.003 C 
ATOM      9  C   UNL     1     142.198 169.794 190.492  0.00  0.00    +0.220 A 
ATOM     10  N   UNL     1     142.571 170.195 189.284  0.00  0.00    -0.205 NA
ATOM     11  C   UNL     1     142.580 171.566 189.345  0.00  0.00    +0.164 A 
ATOM     12  C   UNL     1     142.188 171.977 190.586  0.00  0.00    +0.125 A 
ATOM     13  O   UNL     1     141.914 170.867 191.324  0.00  0.00    -0.443 OA
ATOM     14  C   UNL     1     142.995 172.518 188.185  0.00  0.00    +0.250 A 
ATOM     15  N   UNL     1     143.372 172.097 186.990  0.00  0.00    -0.203 NA
ATOM     16  C   UNL     1     143.658 173.251 186.302  0.00  0.00    +0.164 A 
ATOM     17  C   UNL     1     143.449 174.339 187.108  0.00  0.00    +0.125 A 
ATOM     18  O   UNL     1     143.018 173.888 188.317  0.00  0.00    -0.442 OA
ATOM     19  C   UNL     1     144.147 173.327 184.825  0.00  0.00    +0.249 A 
ATOM     20  N   UNL     1     144.328 172.265 184.057  0.00  0.00    -0.210 NA
ATOM     21  C   UNL     1     144.738 172.778 182.848  0.00  0.00    +0.109 A 
ATOM     22  C   UNL     1     144.798 174.149 182.932  0.00  0.00    +0.118 A 
ATOM     23  O   UNL     1     144.429 174.515 184.188  0.00  0.00    -0.442 OA
ATOM     24  C   UNL     1     145.040 171.878 181.694  0.00  0.00    +0.113 C 
ATOM     25  C   UNL     1     146.494 171.347 181.670  0.00  0.00    +0.051 C 
ATOM     26  C   UNL     1     146.439 169.822 181.649  0.00  0.00    +0.161 C 
ATOM     27  O   UNL     1     146.670 169.198 180.612  0.00  0.00    -0.292 OA
ATOM     28  C   UNL     1     146.051 169.097 182.895  0.00  0.00    -0.023 C 
ATOM     29  C   UNL     1     145.646 167.817 182.832  0.00  0.00    -0.078 C 
ATOM     30  C   UNL     1     145.255 166.973 184.016  0.00  0.00    -0.008 C 
ATOM     31  C   UNL     1     144.159 167.574 184.922  0.00  0.00    +0.069 C 
ATOM     32  C   UNL     1     143.492 166.526 185.816  0.00  0.00    +0.071 C 
ATOM     33  C   UNL     1     144.487 165.847 186.724  0.00  0.00    +0.310 C 
ATOM     34  O   UNL     1     145.387 165.113 186.342  0.00  0.00    -0.251 OA
ATOM     35  O   UNL     1     144.244 166.189 188.019  0.00  0.00    -0.461 OA
ATOM     36  C   UNL     1     145.331 166.028 188.962  0.00  0.00    +0.110 C 
ATOM     37  H   UNL     1     145.848 164.849 190.644  0.00  0.00    +0.036 HD
ATOM     38  H   UNL     1     143.600 164.581 191.720  0.00  0.00    +0.060 HD
ATOM     39  H   UNL     1     141.758 165.883 191.419  0.00  0.00    +0.033 HD
ATOM     40  H   UNL     1     142.118 165.348 189.796  0.00  0.00    +0.033 HD
ATOM     41  H   UNL     1     142.751 167.637 189.133  0.00  0.00    +0.057 HD
ATOM     42  H   UNL     1     141.820 168.292 191.987  0.00  0.00    +0.067 HD
ATOM     43  H   UNL     1     142.029 172.932 191.069  0.00  0.00    +0.105 HD
ATOM     44  H   UNL     1     143.546 175.407 186.989  0.00  0.00    +0.105 HD
ATOM     45  H   UNL     1     145.057 174.943 182.247  0.00  0.00    +0.105 HD
ATOM     46  H   UNL     1     144.345 171.027 181.762  0.00  0.00    +0.067 HD
ATOM     47  H   UNL     1     146.958 171.625 180.713  0.00  0.00    +0.041 HD
ATOM     48  H   UNL     1     146.093 169.631 183.840  0.00  0.00    +0.065 HD
ATOM     49  H   UNL     1     145.605 167.320 181.858  0.00  0.00    +0.057 HD
ATOM     50  H   UNL     1     144.902 166.015 183.621  0.00  0.00    +0.033 HD
ATOM     51  H   UNL     1     146.169 166.779 184.589  0.00  0.00    +0.033 HD
ATOM     52  H   UNL     1     143.385 168.029 184.291  0.00  0.00    +0.060 HD
ATOM     53  H   UNL     1     142.997 165.751 185.221  0.00  0.00    +0.040 HD
ATOM     54  H   UNL     1     142.715 167.003 186.427  0.00  0.00    +0.040 HD
ATOM     55  H   UNL     1     146.185 165.563 188.448  0.00  0.00    +0.074 HD
BRANCH   4  56
ATOM     56  C   UNL     1     144.511 163.701 189.466  0.00  0.00    -0.057 C 
ATOM     57  H   UNL     1     144.481 163.773 188.373  0.00  0.00    +0.023 HD
ATOM     58  H   UNL     1     143.509 163.413 189.797  0.00  0.00    +0.023 HD
ATOM     59  H   UNL     1     145.199 162.895 189.730  0.00  0.00    +0.023 HD
ENDBRANCH   4  56
BRANCH  25  60
ATOM     60  C   UNL     1     147.449 171.846 182.754  0.00  0.00    -0.053 C 
ATOM     61  H   UNL     1     146.941 171.908 183.720  0.00  0.00    +0.024 HD
ATOM     62  H   UNL     1     148.329 171.208 182.875  0.00  0.00    +0.024 HD
ATOM     63  H   UNL     1     147.821 172.847 182.515  0.00  0.00    +0.024 HD
ENDBRANCH  25  60
BRANCH  31  64
ATOM     64  O   UNL     1     144.717 168.614 185.729  0.00  0.00    -0.391 OA
ATOM     65  H   UNL     1     145.018 169.333 185.136  0.00  0.00    +0.210 HD
ENDBRANCH  31  64
BRANCH  24  66
ATOM     66  O   UNL     1     144.791 172.536 180.430  0.00  0.00    -0.373 OA
BRANCH  66  67
ATOM     67  C   UNL     1     143.583 172.094 179.815  0.00  0.00    +0.037 C 
ATOM     68  H   UNL     1     142.714 172.357 180.428  0.00  0.00    +0.052 HD
ATOM     69  H   UNL     1     143.487 172.584 178.839  0.00  0.00    +0.052 HD
ATOM     70  H   UNL     1     143.616 171.007 179.654  0.00  0.00    +0.052 HD
ENDBRANCH  66  67
ENDBRANCH  24  66
BRANCH   5  71
ATOM     71  O   UNL     1     144.349 166.446 192.077  0.00  0.00    -0.379 OA
BRANCH  71  72
ATOM     72  C   UNL     1     143.980 166.203 193.426  0.00  0.00    +0.037 C 
ATOM     73  H   UNL     1     144.359 167.001 194.070  0.00  0.00    +0.052 HD
ATOM     74  H   UNL     1     144.440 165.260 193.738  0.00  0.00    +0.052 HD
ATOM     75  H   UNL     1     142.898 166.107 193.544  0.00  0.00    +0.052 HD
ENDBRANCH  71  72
ENDBRANCH   5  71
ENDBRANCH   1  36
BRANCH   1  76
ATOM     76  C   UNL     1     147.094 167.893 188.758  0.00  0.00    +0.064 C 
ATOM     77  H   UNL     1     147.727 168.338 189.536  0.00  0.00    +0.060 HD
BRANCH  76  78
ATOM     78  C   UNL     1     147.836 166.652 188.165  0.00  0.00    -0.017 C 
ATOM     79  H   UNL     1     147.094 165.850 188.021  0.00  0.00    +0.032 HD
BRANCH  78  80
ATOM     80  C   UNL     1     148.446 166.918 186.787  0.00  0.00    -0.060 C 
ATOM     81  H   UNL     1     149.529 167.052 186.856  0.00  0.00    +0.023 HD
ATOM     82  H   UNL     1     148.015 167.809 186.323  0.00  0.00    +0.023 HD
ATOM     83  H   UNL     1     148.290 166.070 186.111  0.00  0.00    +0.023 HD
ENDBRANCH  78  80
BRANCH  78  84
ATOM     84  C   UNL     1     148.895 166.167 189.194  0.00  0.00    -0.045 C 
ATOM     85  H   UNL     1     148.462 166.189 190.197  0.00  0.00    +0.027 HD
ATOM     86  H   UNL     1     149.100 165.107 188.999  0.00  0.00    +0.027 HD
BRANCH  84  87
ATOM     87  C   UNL     1     150.251 166.882 189.153  0.00  0.00    -0.015 C 
ATOM     88  H   UNL     1     150.846 166.354 188.395  0.00  0.00    +0.030 HD
ATOM     89  H   UNL     1     150.118 167.909 188.797  0.00  0.00    +0.030 HD
BRANCH  87  90
ATOM     90  C   UNL     1     151.048 166.864 190.476  0.00  0.00    +0.109 C 
ATOM     91  H   UNL     1     150.729 165.986 191.040  0.00  0.00    +0.074 HD
BRANCH  90  92
ATOM     92  C   UNL     1     150.749 168.130 191.336  0.00  0.00    +0.031 C 
ATOM     93  H   UNL     1     150.053 168.752 190.757  0.00  0.00    +0.037 HD
BRANCH  92  94
ATOM     94  C   UNL     1     152.008 168.986 191.567  0.00  0.00    -0.056 C 
ATOM     95  H   UNL     1     152.074 169.808 190.848  0.00  0.00    +0.023 HD
ATOM     96  H   UNL     1     152.925 168.395 191.487  0.00  0.00    +0.023 HD
ATOM     97  H   UNL     1     151.986 169.441 192.563  0.00  0.00    +0.023 HD
ENDBRANCH  92  94
BRANCH  92  98
ATOM     98  C   UNL     1     150.056 167.833 192.706  0.00  0.00    +0.115 C 
ATOM     99  H   UNL     1     150.602 168.412 193.463  0.00  0.00    +0.074 HD
BRANCH  98 100
ATOM    100  C   UNL     1     148.559 168.239 192.792  0.00  0.00    +0.013 C 
ATOM    101  H   UNL     1     148.342 168.573 193.812  0.00  0.00    +0.038 HD
BRANCH 100 102
ATOM    102  C   UNL     1     147.606 167.088 192.453  0.00  0.00    -0.056 C 
ATOM    103  H   UNL     1     147.596 166.867 191.384  0.00  0.00    +0.024 HD
ATOM    104  H   UNL     1     147.908 166.172 192.972  0.00  0.00    +0.024 HD
ATOM    105  H   UNL     1     146.576 167.320 192.750  0.00  0.00    +0.024 HD
ENDBRANCH 100 102
BRANCH 100 106
ATOM    106  C   UNL     1     148.258 169.401 191.858  0.00  0.00    -0.064 C 
ATOM    107  C   UNL     1     148.197 170.675 192.273  0.00  0.00    -0.005 C 
ATOM    108  H   UNL     1     148.113 169.143 190.814  0.00  0.00    +0.059 HD
ATOM    109  H   UNL     1     148.387 170.886 193.326  0.00  0.00    +0.078 HD
BRANCH 107 110
ATOM    110  N   UNL     1     147.931 171.797 191.502  0.00  0.00    -0.284 N 
ATOM    111  C   UNL     1     146.660 172.231 191.123  0.00  0.00    +0.206 C 
ATOM    112  O   UNL     1     145.568 171.746 191.385  0.00  0.00    -0.279 OA
ATOM    113  H   UNL     1     146.709 173.151 190.518  0.00  0.00    +0.126 HD
BRANCH 110 114
ATOM    114  C   UNL     1     149.081 172.601 191.100  0.00  0.00    +0.007 C 
ATOM    115  H   UNL     1     148.776 173.529 190.609  0.00  0.00    +0.043 HD
ATOM    116  H   UNL     1     149.663 172.854 191.991  0.00  0.00    +0.043 HD
ATOM    117  H   UNL     1     149.703 172.026 190.410  0.00  0.00    +0.043 HD
ENDBRANCH 110 114
ENDBRANCH 107 110
ENDBRANCH 100 106
ENDBRANCH  98 100
BRANCH  98 118
ATOM    118  O   UNL     1     150.144 166.417 192.987  0.00  0.00    -0.461 OA
BRANCH 118 119
ATOM    119  C   UNL     1     150.961 166.050 194.012  0.00  0.00    +0.304 C 
ATOM    120  O   UNL     1     152.174 165.896 193.946  0.00  0.00    -0.251 OA
BRANCH 119 121
ATOM    121  C   UNL     1     150.161 165.816 195.255  0.00  0.00    +0.033 C 
ATOM    122  H   UNL     1     149.096 165.801 195.015  0.00  0.00    +0.034 HD
ATOM    123  H   UNL     1     150.438 164.850 195.686  0.00  0.00    +0.034 HD
ATOM    124  H   UNL     1     150.382 166.592 195.994  0.00  0.00    +0.034 HD
ENDBRANCH 119 121
ENDBRANCH 118 119
ENDBRANCH  98 118
ENDBRANCH  92  98
ENDBRANCH  90  92
BRANCH  90 125
ATOM    125  O   UNL     1     152.459 166.802 190.179  0.00  0.00    -0.459 OA
BRANCH 125 126
ATOM    126  C   UNL     1     153.040 165.562 190.165  0.00  0.00    +0.339 C 
ATOM    127  O   UNL     1     152.740 164.637 190.910  0.00  0.00    -0.248 OA
BRANCH 126 128
ATOM    128  C   UNL     1     154.059 165.472 189.021  0.00  0.00    +0.178 C 
ATOM    129  H   UNL     1     153.682 164.733 188.299  0.00  0.00    +0.074 HD
BRANCH 128 130
ATOM    130  C   UNL     1     154.115 166.835 188.317  0.00  0.00    +0.084 C 
ATOM    131  H   UNL     1     155.155 167.056 188.052  0.00  0.00    +0.059 HD
ATOM    132  H   UNL     1     153.782 167.633 188.991  0.00  0.00    +0.059 HD
BRANCH 130 133
ATOM    133  O   UNL     1     153.368 166.935 187.099  0.00  0.00    -0.380 OA
BRANCH 133 134
ATOM    134  C   UNL     1     153.228 165.702 186.405  0.00  0.00    +0.037 C 
ATOM    135  H   UNL     1     152.453 165.765 185.636  0.00  0.00    +0.052 HD
ATOM    136  H   UNL     1     154.180 165.477 185.916  0.00  0.00    +0.052 HD
ATOM    137  H   UNL     1     153.017 164.887 187.104  0.00  0.00    +0.052 HD
ENDBRANCH 133 134
ENDBRANCH 130 133
ENDBRANCH 128 130
BRANCH 128 138
ATOM    138  O   UNL     1     155.390 165.080 189.364  0.00  0.00    -0.366 OA
BRANCH 138 139
ATOM    139  C   UNL     1     156.116 166.100 190.035  0.00  0.00    +0.038 C 
ATOM    140  H   UNL     1     155.964 165.971 191.108  0.00  0.00    +0.052 HD
ATOM    141  H   UNL     1     157.185 166.014 189.825  0.00  0.00    +0.052 HD
ATOM    142  H   UNL     1     155.759 167.094 189.755  0.00  0.00    +0.052 HD
ENDBRANCH 138 139
ENDBRANCH 128 138
ENDBRANCH 126 128
ENDBRANCH 125 126
ENDBRANCH  90 125
ENDBRANCH  87  90
ENDBRANCH  84  87
ENDBRANCH  78  84
ENDBRANCH  76  78
BRANCH  76 143
ATOM    143  O   UNL     1     146.796 168.869 187.749  0.00  0.00    -0.379 OA
BRANCH 143 144
ATOM    144  C   UNL     1     146.357 170.106 188.297  0.00  0.00    +0.037 C 
ATOM    145  H   UNL     1     145.382 169.945 188.766  0.00  0.00    +0.052 HD
ATOM    146  H   UNL     1     146.256 170.864 187.519  0.00  0.00    +0.052 HD
ATOM    147  H   UNL     1     147.060 170.446 189.064  0.00  0.00    +0.052 HD
ENDBRANCH 143 144
ENDBRANCH  76 143
ENDBRANCH   1  76
TORSDOF 35
ENDMDL
MODEL 8
REMARK VINA RESULT:      -5.6      5.053      8.455
REMARK  Name = Mycalolide B_conf2
REMARK  35 active torsions:
REMARK  status: ('A' for Active; 'I' for Inactive)
REMARK    1  A    between atoms: C_1  and  C_2
REMARK    2  A    between atoms: C_3  and  O_72
REMARK    3  A    between atoms: C_22  and  O_70
REMARK    4  A    between atoms: C_23  and  C_69
REMARK    5  A    between atoms: C_29  and  O_68
REMARK    6  A    between atoms: C_34  and  C_35
REMARK    7  A    between atoms: C_35  and  C_36
REMARK    8  A    between atoms: C_36  and  C_37
REMARK    9  A    between atoms: C_36  and  O_66
REMARK   10  A    between atoms: C_37  and  C_38
REMARK   11  A    between atoms: C_37  and  C_39
REMARK   12  A    between atoms: C_39  and  C_40
REMARK   13  A    between atoms: C_40  and  C_41
REMARK   14  A    between atoms: C_41  and  C_42
REMARK   15  A    between atoms: C_41  and  O_57
REMARK   16  A    between atoms: C_42  and  C_43
REMARK   17  A    between atoms: C_42  and  C_44
REMARK   18  A    between atoms: C_44  and  C_45
REMARK   19  A    between atoms: C_44  and  O_53
REMARK   20  A    between atoms: C_45  and  C_46
REMARK   21  A    between atoms: C_45  and  C_47
REMARK   22  A    between atoms: C_48  and  N_49
REMARK   23  A    between atoms: N_49  and  C_50
REMARK   24  A    between atoms: O_53  and  C_54
REMARK   25  A    between atoms: C_54  and  C_56
REMARK   26  A    between atoms: O_57  and  C_58
REMARK   27  A    between atoms: C_58  and  C_60
REMARK   28  A    between atoms: C_60  and  C_61
REMARK   29  A    between atoms: C_60  and  O_64
REMARK   30  A    between atoms: C_61  and  O_62
REMARK   31  A    between atoms: O_62  and  C_63
REMARK   32  A    between atoms: O_64  and  C_65
REMARK   33  A    between atoms: O_66  and  C_67
REMARK   34  A    between atoms: O_70  and  C_71
REMARK   35  A    between atoms: O_72  and  C_73
REMARK                            x       y       z     vdW  Elec       q    Type
REMARK                         _______ _______ _______ _____ _____    ______ ____
ROOT
ATOM      1  C   UNL     1     147.778 166.286 184.328  0.00  0.00    +0.011 C 
ATOM      2  H   UNL     1     148.340 165.978 185.215  0.00  0.00    +0.033 HD
ATOM      3  H   UNL     1     148.522 166.399 183.540  0.00  0.00    +0.033 HD
ENDROOT
BRANCH   1  36
ATOM      4  C   UNL     1     146.715 164.685 182.518  0.00  0.00    +0.020 C 
ATOM      5  C   UNL     1     148.027 164.258 181.792  0.00  0.00    +0.068 C 
ATOM      6  C   UNL     1     148.919 163.189 182.479  0.00  0.00    -0.008 C 
ATOM      7  C   UNL     1     149.830 163.685 183.567  0.00  0.00    -0.077 C 
ATOM      8  C   UNL     1     151.099 164.078 183.364  0.00  0.00    -0.003 C 
ATOM      9  C   UNL     1     151.864 164.644 184.420  0.00  0.00    +0.220 A 
ATOM     10  N   UNL     1     151.478 164.813 185.678  0.00  0.00    -0.205 NA
ATOM     11  C   UNL     1     152.521 165.462 186.290  0.00  0.00    +0.164 A 
ATOM     12  C   UNL     1     153.536 165.654 185.398  0.00  0.00    +0.125 A 
ATOM     13  O   UNL     1     153.149 165.119 184.209  0.00  0.00    -0.443 OA
ATOM     14  C   UNL     1     152.544 165.930 187.776  0.00  0.00    +0.250 A 
ATOM     15  N   UNL     1     151.549 165.732 188.623  0.00  0.00    -0.203 NA
ATOM     16  C   UNL     1     151.981 166.312 189.790  0.00  0.00    +0.164 A 
ATOM     17  C   UNL     1     153.228 166.850 189.611  0.00  0.00    +0.125 A 
ATOM     18  O   UNL     1     153.608 166.609 188.327  0.00  0.00    -0.442 OA
ATOM     19  C   UNL     1     151.183 166.359 191.128  0.00  0.00    +0.249 A 
ATOM     20  N   UNL     1     149.986 165.819 191.286  0.00  0.00    -0.210 NA
ATOM     21  C   UNL     1     149.664 166.071 192.600  0.00  0.00    +0.109 A 
ATOM     22  C   UNL     1     150.689 166.769 193.194  0.00  0.00    +0.118 A 
ATOM     23  O   UNL     1     151.664 166.965 192.267  0.00  0.00    -0.442 OA
ATOM     24  C   UNL     1     148.367 165.602 193.176  0.00  0.00    +0.113 C 
ATOM     25  C   UNL     1     147.191 166.587 192.969  0.00  0.00    +0.051 C 
ATOM     26  C   UNL     1     146.074 165.841 192.245  0.00  0.00    +0.161 C 
ATOM     27  O   UNL     1     145.068 165.470 192.853  0.00  0.00    -0.292 OA
ATOM     28  C   UNL     1     146.240 165.522 190.796  0.00  0.00    -0.023 C 
ATOM     29  C   UNL     1     145.475 164.578 190.220  0.00  0.00    -0.078 C 
ATOM     30  C   UNL     1     145.529 164.186 188.768  0.00  0.00    -0.008 C 
ATOM     31  C   UNL     1     146.923 163.778 188.247  0.00  0.00    +0.069 C 
ATOM     32  C   UNL     1     146.856 162.979 186.943  0.00  0.00    +0.071 C 
ATOM     33  C   UNL     1     146.188 163.761 185.839  0.00  0.00    +0.310 C 
ATOM     34  O   UNL     1     145.009 164.086 185.834  0.00  0.00    -0.251 OA
ATOM     35  O   UNL     1     147.093 164.064 184.869  0.00  0.00    -0.461 OA
ATOM     36  C   UNL     1     146.776 165.169 183.989  0.00  0.00    +0.110 C 
ATOM     37  H   UNL     1     146.300 165.530 181.957  0.00  0.00    +0.036 HD
ATOM     38  H   UNL     1     147.726 163.795 180.841  0.00  0.00    +0.060 HD
ATOM     39  H   UNL     1     149.552 162.744 181.700  0.00  0.00    +0.033 HD
ATOM     40  H   UNL     1     148.309 162.364 182.865  0.00  0.00    +0.033 HD
ATOM     41  H   UNL     1     149.414 163.761 184.570  0.00  0.00    +0.057 HD
ATOM     42  H   UNL     1     151.545 164.048 182.376  0.00  0.00    +0.067 HD
ATOM     43  H   UNL     1     154.527 166.086 185.438  0.00  0.00    +0.105 HD
ATOM     44  H   UNL     1     153.926 167.386 190.236  0.00  0.00    +0.105 HD
ATOM     45  H   UNL     1     150.868 167.162 194.183  0.00  0.00    +0.105 HD
ATOM     46  H   UNL     1     148.128 164.644 192.690  0.00  0.00    +0.067 HD
ATOM     47  H   UNL     1     146.767 166.845 193.949  0.00  0.00    +0.041 HD
ATOM     48  H   UNL     1     146.997 166.058 190.230  0.00  0.00    +0.065 HD
ATOM     49  H   UNL     1     144.734 164.052 190.830  0.00  0.00    +0.057 HD
ATOM     50  H   UNL     1     144.842 163.343 188.641  0.00  0.00    +0.033 HD
ATOM     51  H   UNL     1     145.131 165.029 188.192  0.00  0.00    +0.033 HD
ATOM     52  H   UNL     1     147.419 163.157 189.004  0.00  0.00    +0.060 HD
ATOM     53  H   UNL     1     146.300 162.045 187.076  0.00  0.00    +0.040 HD
ATOM     54  H   UNL     1     147.870 162.704 186.625  0.00  0.00    +0.040 HD
ATOM     55  H   UNL     1     145.769 165.541 184.229  0.00  0.00    +0.074 HD
BRANCH   4  56
ATOM     56  C   UNL     1     145.678 163.553 182.401  0.00  0.00    -0.057 C 
ATOM     57  H   UNL     1     145.924 162.886 181.568  0.00  0.00    +0.023 HD
ATOM     58  H   UNL     1     144.682 163.961 182.205  0.00  0.00    +0.023 HD
ATOM     59  H   UNL     1     145.622 162.948 183.309  0.00  0.00    +0.023 HD
ENDBRANCH   4  56
BRANCH  25  60
ATOM     60  C   UNL     1     147.493 167.919 192.284  0.00  0.00    -0.053 C 
ATOM     61  H   UNL     1     148.563 168.013 192.073  0.00  0.00    +0.024 HD
ATOM     62  H   UNL     1     146.951 168.049 191.343  0.00  0.00    +0.024 HD
ATOM     63  H   UNL     1     147.212 168.760 192.925  0.00  0.00    +0.024 HD
ENDBRANCH  25  60
BRANCH  31  64
ATOM     64  O   UNL     1     147.729 164.944 188.059  0.00  0.00    -0.391 OA
ATOM     65  H   UNL     1     147.608 165.527 188.835  0.00  0.00    +0.210 HD
ENDBRANCH  31  64
BRANCH  24  66
ATOM     66  O   UNL     1     148.481 165.347 194.595  0.00  0.00    -0.373 OA
BRANCH  66  67
ATOM     67  C   UNL     1     147.618 166.178 195.369  0.00  0.00    +0.037 C 
ATOM     68  H   UNL     1     147.438 167.132 194.862  0.00  0.00    +0.052 HD
ATOM     69  H   UNL     1     146.659 165.662 195.500  0.00  0.00    +0.052 HD
ATOM     70  H   UNL     1     148.054 166.354 196.362  0.00  0.00    +0.052 HD
ENDBRANCH  66  67
ENDBRANCH  24  66
BRANCH   5  71
ATOM     71  O   UNL     1     148.864 165.376 181.451  0.00  0.00    -0.379 OA
BRANCH  71  72
ATOM     72  C   UNL     1     149.423 165.320 180.147  0.00  0.00    +0.037 C 
ATOM     73  H   UNL     1     149.954 164.376 180.004  0.00  0.00    +0.052 HD
ATOM     74  H   UNL     1     150.143 166.139 180.053  0.00  0.00    +0.052 HD
ATOM     75  H   UNL     1     148.664 165.446 179.371  0.00  0.00    +0.052 HD
ENDBRANCH  71  72
ENDBRANCH   5  71
ENDBRANCH   1  36
BRANCH   1  76
ATOM     76  C   UNL     1     147.112 167.652 184.582  0.00  0.00    +0.064 C 
ATOM     77  H   UNL     1     146.042 167.509 184.779  0.00  0.00    +0.060 HD
BRANCH  76  78
ATOM     78  C   UNL     1     147.760 168.325 185.835  0.00  0.00    -0.017 C 
ATOM     79  H   UNL     1     148.764 167.892 185.972  0.00  0.00    +0.032 HD
BRANCH  78  80
ATOM     80  C   UNL     1     147.968 169.832 185.667  0.00  0.00    -0.060 C 
ATOM     81  H   UNL     1     148.519 170.250 186.515  0.00  0.00    +0.023 HD
ATOM     82  H   UNL     1     147.016 170.362 185.577  0.00  0.00    +0.023 HD
ATOM     83  H   UNL     1     148.570 170.055 184.779  0.00  0.00    +0.023 HD
ENDBRANCH  78  80
BRANCH  78  84
ATOM     84  C   UNL     1     146.900 167.985 187.084  0.00  0.00    -0.045 C 
ATOM     85  H   UNL     1     145.854 168.225 186.880  0.00  0.00    +0.027 HD
ATOM     86  H   UNL     1     146.917 166.897 187.224  0.00  0.00    +0.027 HD
BRANCH  84  87
ATOM     87  C   UNL     1     147.367 168.597 188.411  0.00  0.00    -0.015 C 
ATOM     88  H   UNL     1     147.552 167.749 189.084  0.00  0.00    +0.030 HD
ATOM     89  H   UNL     1     148.325 169.107 188.267  0.00  0.00    +0.030 HD
BRANCH  87  90
ATOM     90  C   UNL     1     146.350 169.534 189.099  0.00  0.00    +0.109 C 
ATOM     91  H   UNL     1     146.034 169.052 190.026  0.00  0.00    +0.074 HD
BRANCH  90  92
ATOM     92  C   UNL     1     145.089 169.756 188.210  0.00  0.00    +0.031 C 
ATOM     93  H   UNL     1     145.177 169.072 187.354  0.00  0.00    +0.037 HD
BRANCH  92  94
ATOM     94  C   UNL     1     145.033 171.179 187.625  0.00  0.00    -0.056 C 
ATOM     95  H   UNL     1     146.026 171.639 187.590  0.00  0.00    +0.023 HD
ATOM     96  H   UNL     1     144.380 171.835 188.206  0.00  0.00    +0.023 HD
ATOM     97  H   UNL     1     144.661 171.158 186.596  0.00  0.00    +0.023 HD
ENDBRANCH  92  94
BRANCH  92  98
ATOM     98  C   UNL     1     143.733 169.423 188.915  0.00  0.00    +0.115 C 
ATOM     99  H   UNL     1     143.614 170.157 189.723  0.00  0.00    +0.074 HD
BRANCH  98 100
ATOM    100  C   UNL     1     142.476 169.513 188.007  0.00  0.00    +0.013 C 
ATOM    101  H   UNL     1     142.682 170.212 187.188  0.00  0.00    +0.038 HD
BRANCH 100 102
ATOM    102  C   UNL     1     141.232 170.006 188.753  0.00  0.00    -0.056 C 
ATOM    103  H   UNL     1     140.954 169.337 189.570  0.00  0.00    +0.024 HD
ATOM    104  H   UNL     1     141.411 170.995 189.189  0.00  0.00    +0.024 HD
ATOM    105  H   UNL     1     140.368 170.085 188.084  0.00  0.00    +0.024 HD
ENDBRANCH 100 102
BRANCH 100 106
ATOM    106  C   UNL     1     142.157 168.163 187.385  0.00  0.00    -0.064 C 
ATOM    107  C   UNL     1     140.975 167.547 187.542  0.00  0.00    -0.005 C 
ATOM    108  H   UNL     1     142.942 167.724 186.778  0.00  0.00    +0.059 HD
ATOM    109  H   UNL     1     140.206 168.047 188.131  0.00  0.00    +0.078 HD
BRANCH 107 110
ATOM    110  N   UNL     1     140.591 166.321 187.018  0.00  0.00    -0.284 N 
ATOM    111  C   UNL     1     141.132 165.086 187.378  0.00  0.00    +0.206 C 
ATOM    112  O   UNL     1     142.005 164.834 188.196  0.00  0.00    -0.279 OA
ATOM    113  H   UNL     1     140.656 164.259 186.826  0.00  0.00    +0.126 HD
BRANCH 110 114
ATOM    114  C   UNL     1     139.504 166.339 186.045  0.00  0.00    +0.007 C 
ATOM    115  H   UNL     1     139.349 167.338 185.626  0.00  0.00    +0.043 HD
ATOM    116  H   UNL     1     139.751 165.655 185.228  0.00  0.00    +0.043 HD
ATOM    117  H   UNL     1     138.579 166.013 186.526  0.00  0.00    +0.043 HD
ENDBRANCH 110 114
ENDBRANCH 107 110
ENDBRANCH 100 106
ENDBRANCH  98 100
BRANCH  98 118
ATOM    118  O   UNL     1     143.793 168.081 189.451  0.00  0.00    -0.461 OA
BRANCH 118 119
ATOM    119  C   UNL     1     143.451 167.933 190.760  0.00  0.00    +0.304 C 
ATOM    120  O   UNL     1     143.872 168.604 191.693  0.00  0.00    -0.251 OA
BRANCH 119 121
ATOM    121  C   UNL     1     142.499 166.790 190.922  0.00  0.00    +0.033 C 
ATOM    122  H   UNL     1     141.502 167.167 191.164  0.00  0.00    +0.034 HD
ATOM    123  H   UNL     1     142.445 166.228 189.986  0.00  0.00    +0.034 HD
ATOM    124  H   UNL     1     142.858 166.113 191.704  0.00  0.00    +0.034 HD
ENDBRANCH 119 121
ENDBRANCH 118 119
ENDBRANCH  98 118
ENDBRANCH  92  98
ENDBRANCH  90  92
BRANCH  90 125
ATOM    125  O   UNL     1     146.983 170.804 189.368  0.00  0.00    -0.459 OA
BRANCH 125 126
ATOM    126  C   UNL     1     146.930 171.267 190.656  0.00  0.00    +0.339 C 
ATOM    127  O   UNL     1     145.901 171.461 191.291  0.00  0.00    -0.248 OA
BRANCH 126 128
ATOM    128  C   UNL     1     148.350 171.422 191.217  0.00  0.00    +0.178 C 
ATOM    129  H   UNL     1     148.774 172.345 190.796  0.00  0.00    +0.074 HD
BRANCH 128 130
ATOM    130  C   UNL     1     148.251 171.598 192.739  0.00  0.00    +0.084 C 
ATOM    131  H   UNL     1     149.009 170.971 193.220  0.00  0.00    +0.059 HD
ATOM    132  H   UNL     1     147.276 171.256 193.105  0.00  0.00    +0.059 HD
BRANCH 130 133
ATOM    133  O   UNL     1     148.473 172.927 193.225  0.00  0.00    -0.380 OA
BRANCH 133 134
ATOM    134  C   UNL     1     148.844 173.857 192.215  0.00  0.00    +0.037 C 
ATOM    135  H   UNL     1     149.927 174.006 192.191  0.00  0.00    +0.052 HD
ATOM    136  H   UNL     1     148.531 173.451 191.248  0.00  0.00    +0.052 HD
ATOM    137  H   UNL     1     148.323 174.808 192.356  0.00  0.00    +0.052 HD
ENDBRANCH 133 134
ENDBRANCH 130 133
ENDBRANCH 128 130
BRANCH 128 138
ATOM    138  O   UNL     1     149.278 170.371 190.938  0.00  0.00    -0.366 OA
BRANCH 138 139
ATOM    139  C   UNL     1     150.347 170.308 191.873  0.00  0.00    +0.038 C 
ATOM    140  H   UNL     1     149.954 170.584 192.852  0.00  0.00    +0.052 HD
ATOM    141  H   UNL     1     150.746 169.292 191.934  0.00  0.00    +0.052 HD
ATOM    142  H   UNL     1     151.145 171.008 191.614  0.00  0.00    +0.052 HD
ENDBRANCH 138 139
ENDBRANCH 128 138
ENDBRANCH 126 128
ENDBRANCH 125 126
ENDBRANCH  90 125
ENDBRANCH  87  90
ENDBRANCH  84  87
ENDBRANCH  78  84
ENDBRANCH  76  78
BRANCH  76 143
ATOM    143  O   UNL     1     147.294 168.441 183.398  0.00  0.00    -0.379 OA
BRANCH 143 144
ATOM    144  C   UNL     1     146.092 168.590 182.650  0.00  0.00    +0.037 C 
ATOM    145  H   UNL     1     146.312 169.205 181.773  0.00  0.00    +0.052 HD
ATOM    146  H   UNL     1     145.321 169.083 183.245  0.00  0.00    +0.052 HD
ATOM    147  H   UNL     1     145.738 167.611 182.311  0.00  0.00    +0.052 HD
ENDBRANCH 143 144
ENDBRANCH  76 143
ENDBRANCH   1  76
TORSDOF 35
ENDMDL
MODEL 9
REMARK VINA RESULT:      -5.6      3.988      9.227
REMARK  Name = Mycalolide B_conf2
REMARK  35 active torsions:
REMARK  status: ('A' for Active; 'I' for Inactive)
REMARK    1  A    between atoms: C_1  and  C_2
REMARK    2  A    between atoms: C_3  and  O_72
REMARK    3  A    between atoms: C_22  and  O_70
REMARK    4  A    between atoms: C_23  and  C_69
REMARK    5  A    between atoms: C_29  and  O_68
REMARK    6  A    between atoms: C_34  and  C_35
REMARK    7  A    between atoms: C_35  and  C_36
REMARK    8  A    between atoms: C_36  and  C_37
REMARK    9  A    between atoms: C_36  and  O_66
REMARK   10  A    between atoms: C_37  and  C_38
REMARK   11  A    between atoms: C_37  and  C_39
REMARK   12  A    between atoms: C_39  and  C_40
REMARK   13  A    between atoms: C_40  and  C_41
REMARK   14  A    between atoms: C_41  and  C_42
REMARK   15  A    between atoms: C_41  and  O_57
REMARK   16  A    between atoms: C_42  and  C_43
REMARK   17  A    between atoms: C_42  and  C_44
REMARK   18  A    between atoms: C_44  and  C_45
REMARK   19  A    between atoms: C_44  and  O_53
REMARK   20  A    between atoms: C_45  and  C_46
REMARK   21  A    between atoms: C_45  and  C_47
REMARK   22  A    between atoms: C_48  and  N_49
REMARK   23  A    between atoms: N_49  and  C_50
REMARK   24  A    between atoms: O_53  and  C_54
REMARK   25  A    between atoms: C_54  and  C_56
REMARK   26  A    between atoms: O_57  and  C_58
REMARK   27  A    between atoms: C_58  and  C_60
REMARK   28  A    between atoms: C_60  and  C_61
REMARK   29  A    between atoms: C_60  and  O_64
REMARK   30  A    between atoms: C_61  and  O_62
REMARK   31  A    between atoms: O_62  and  C_63
REMARK   32  A    between atoms: O_64  and  C_65
REMARK   33  A    between atoms: O_66  and  C_67
REMARK   34  A    between atoms: O_70  and  C_71
REMARK   35  A    between atoms: O_72  and  C_73
REMARK                            x       y       z     vdW  Elec       q    Type
REMARK                         _______ _______ _______ _____ _____    ______ ____
ROOT
ATOM      1  C   UNL     1     145.621 166.453 189.799  0.00  0.00    +0.011 C 
ATOM      2  H   UNL     1     146.048 165.641 189.201  0.00  0.00    +0.033 HD
ATOM      3  H   UNL     1     146.159 167.350 189.492  0.00  0.00    +0.033 HD
ENDROOT
BRANCH   1  36
ATOM      4  C   UNL     1     143.564 167.966 189.130  0.00  0.00    +0.020 C 
ATOM      5  C   UNL     1     144.267 168.847 188.054  0.00  0.00    +0.068 C 
ATOM      6  C   UNL     1     144.500 168.225 186.650  0.00  0.00    -0.008 C 
ATOM      7  C   UNL     1     145.694 167.323 186.513  0.00  0.00    -0.077 C 
ATOM      8  C   UNL     1     146.910 167.741 186.122  0.00  0.00    -0.003 C 
ATOM      9  C   UNL     1     148.020 166.853 186.126  0.00  0.00    +0.220 A 
ATOM     10  N   UNL     1     148.008 165.566 186.451  0.00  0.00    -0.205 NA
ATOM     11  C   UNL     1     149.317 165.163 186.378  0.00  0.00    +0.164 A 
ATOM     12  C   UNL     1     150.103 166.208 185.984  0.00  0.00    +0.125 A 
ATOM     13  O   UNL     1     149.294 167.286 185.793  0.00  0.00    -0.443 OA
ATOM     14  C   UNL     1     149.841 163.735 186.712  0.00  0.00    +0.250 A 
ATOM     15  N   UNL     1     149.062 162.738 187.092  0.00  0.00    -0.203 NA
ATOM     16  C   UNL     1     149.928 161.692 187.293  0.00  0.00    +0.164 A 
ATOM     17  C   UNL     1     151.213 162.092 187.033  0.00  0.00    +0.125 A 
ATOM     18  O   UNL     1     151.175 163.398 186.653  0.00  0.00    -0.442 OA
ATOM     19  C   UNL     1     149.527 160.257 187.750  0.00  0.00    +0.249 A 
ATOM     20  N   UNL     1     148.278 159.885 187.981  0.00  0.00    -0.210 NA
ATOM     21  C   UNL     1     148.373 158.559 188.336  0.00  0.00    +0.109 A 
ATOM     22  C   UNL     1     149.693 158.175 188.313  0.00  0.00    +0.118 A 
ATOM     23  O   UNL     1     150.442 159.248 187.946  0.00  0.00    -0.442 OA
ATOM     24  C   UNL     1     147.153 157.764 188.671  0.00  0.00    +0.113 C 
ATOM     25  C   UNL     1     146.721 157.865 190.154  0.00  0.00    +0.051 C 
ATOM     26  C   UNL     1     145.278 158.359 190.193  0.00  0.00    +0.161 C 
ATOM     27  O   UNL     1     144.353 157.584 190.442  0.00  0.00    -0.292 OA
ATOM     28  C   UNL     1     144.997 159.790 189.873  0.00  0.00    -0.023 C 
ATOM     29  C   UNL     1     143.752 160.178 189.546  0.00  0.00    -0.078 C 
ATOM     30  C   UNL     1     143.339 161.590 189.230  0.00  0.00    -0.008 C 
ATOM     31  C   UNL     1     144.153 162.282 188.117  0.00  0.00    +0.069 C 
ATOM     32  C   UNL     1     143.436 163.501 187.531  0.00  0.00    +0.071 C 
ATOM     33  C   UNL     1     143.156 164.546 188.583  0.00  0.00    +0.310 C 
ATOM     34  O   UNL     1     142.383 164.399 189.520  0.00  0.00    -0.251 OA
ATOM     35  O   UNL     1     143.902 165.659 188.344  0.00  0.00    -0.461 OA
ATOM     36  C   UNL     1     144.125 166.559 189.456  0.00  0.00    +0.110 C 
ATOM     37  H   UNL     1     143.612 168.518 190.076  0.00  0.00    +0.036 HD
ATOM     38  H   UNL     1     143.608 169.707 187.869  0.00  0.00    +0.060 HD
ATOM     39  H   UNL     1     144.635 169.057 185.945  0.00  0.00    +0.033 HD
ATOM     40  H   UNL     1     143.603 167.695 186.307  0.00  0.00    +0.033 HD
ATOM     41  H   UNL     1     145.563 166.278 186.786  0.00  0.00    +0.057 HD
ATOM     42  H   UNL     1     147.093 168.779 185.870  0.00  0.00    +0.067 HD
ATOM     43  H   UNL     1     151.155 166.347 185.776  0.00  0.00    +0.105 HD
ATOM     44  H   UNL     1     152.181 161.618 187.062  0.00  0.00    +0.105 HD
ATOM     45  H   UNL     1     150.221 157.254 188.510  0.00  0.00    +0.105 HD
ATOM     46  H   UNL     1     146.340 158.141 188.031  0.00  0.00    +0.067 HD
ATOM     47  H   UNL     1     146.682 156.853 190.582  0.00  0.00    +0.041 HD
ATOM     48  H   UNL     1     145.820 160.499 189.900  0.00  0.00    +0.065 HD
ATOM     49  H   UNL     1     142.954 159.429 189.518  0.00  0.00    +0.057 HD
ATOM     50  H   UNL     1     142.286 161.554 188.929  0.00  0.00    +0.033 HD
ATOM     51  H   UNL     1     143.397 162.159 190.165  0.00  0.00    +0.033 HD
ATOM     52  H   UNL     1     144.328 161.565 187.305  0.00  0.00    +0.060 HD
ATOM     53  H   UNL     1     142.481 163.221 187.075  0.00  0.00    +0.040 HD
ATOM     54  H   UNL     1     144.051 163.946 186.739  0.00  0.00    +0.040 HD
ATOM     55  H   UNL     1     143.558 166.199 190.328  0.00  0.00    +0.074 HD
BRANCH   4  56
ATOM     56  C   UNL     1     142.067 167.847 188.790  0.00  0.00    -0.057 C 
ATOM     57  H   UNL     1     141.449 168.187 189.629  0.00  0.00    +0.023 HD
ATOM     58  H   UNL     1     141.798 166.805 188.594  0.00  0.00    +0.023 HD
ATOM     59  H   UNL     1     141.794 168.437 187.912  0.00  0.00    +0.023 HD
ENDBRANCH   4  56
BRANCH  25  60
ATOM     60  C   UNL     1     147.605 158.680 191.097  0.00  0.00    -0.053 C 
ATOM     61  H   UNL     1     147.576 158.268 192.109  0.00  0.00    +0.024 HD
ATOM     62  H   UNL     1     148.650 158.717 190.778  0.00  0.00    +0.024 HD
ATOM     63  H   UNL     1     147.260 159.717 191.156  0.00  0.00    +0.024 HD
ENDBRANCH  25  60
BRANCH  31  64
ATOM     64  O   UNL     1     145.432 162.670 188.625  0.00  0.00    -0.391 OA
ATOM     65  H   UNL     1     145.292 163.345 189.320  0.00  0.00    +0.210 HD
ENDBRANCH  31  64
BRANCH  24  66
ATOM     66  O   UNL     1     147.332 156.363 188.359  0.00  0.00    -0.373 OA
BRANCH  66  67
ATOM     67  C   UNL     1     146.270 155.844 187.560  0.00  0.00    +0.037 C 
ATOM     68  H   UNL     1     145.535 156.624 187.333  0.00  0.00    +0.052 HD
ATOM     69  H   UNL     1     146.691 155.471 186.618  0.00  0.00    +0.052 HD
ATOM     70  H   UNL     1     145.784 155.005 188.077  0.00  0.00    +0.052 HD
ENDBRANCH  66  67
ENDBRANCH  24  66
BRANCH   5  71
ATOM     71  O   UNL     1     145.519 169.388 188.508  0.00  0.00    -0.379 OA
BRANCH  71  72
ATOM     72  C   UNL     1     145.784 170.713 188.074  0.00  0.00    +0.037 C 
ATOM     73  H   UNL     1     146.309 171.268 188.855  0.00  0.00    +0.052 HD
ATOM     74  H   UNL     1     144.825 171.205 187.886  0.00  0.00    +0.052 HD
ATOM     75  H   UNL     1     146.361 170.732 187.147  0.00  0.00    +0.052 HD
ENDBRANCH  71  72
ENDBRANCH   5  71
ENDBRANCH   1  36
BRANCH   1  76
ATOM     76  C   UNL     1     145.892 166.197 191.293  0.00  0.00    +0.064 C 
ATOM     77  H   UNL     1     145.770 165.129 191.513  0.00  0.00    +0.060 HD
BRANCH  76  78
ATOM     78  C   UNL     1     147.361 166.608 191.636  0.00  0.00    -0.017 C 
ATOM     79  H   UNL     1     147.352 167.660 191.963  0.00  0.00    +0.032 HD
BRANCH  78  80
ATOM     80  C   UNL     1     147.952 165.808 192.800  0.00  0.00    -0.060 C 
ATOM     81  H   UNL     1     148.328 166.474 193.582  0.00  0.00    +0.023 HD
ATOM     82  H   UNL     1     148.771 165.164 192.470  0.00  0.00    +0.023 HD
ATOM     83  H   UNL     1     147.193 165.180 193.278  0.00  0.00    +0.023 HD
ENDBRANCH  78  80
BRANCH  78  84
ATOM     84  C   UNL     1     148.223 166.498 190.348  0.00  0.00    -0.045 C 
ATOM     85  H   UNL     1     147.819 165.709 189.708  0.00  0.00    +0.027 HD
ATOM     86  H   UNL     1     148.095 167.421 189.771  0.00  0.00    +0.027 HD
BRANCH  84  87
ATOM     87  C   UNL     1     149.733 166.329 190.560  0.00  0.00    -0.015 C 
ATOM     88  H   UNL     1     149.846 165.848 191.541  0.00  0.00    +0.030 HD
ATOM     89  H   UNL     1     150.137 165.636 189.814  0.00  0.00    +0.030 HD
BRANCH  87  90
ATOM     90  C   UNL     1     150.547 167.641 190.579  0.00  0.00    +0.109 C 
ATOM     91  H   UNL     1     150.082 168.327 189.869  0.00  0.00    +0.074 HD
BRANCH  90  92
ATOM     92  C   UNL     1     152.022 167.401 190.131  0.00  0.00    +0.031 C 
ATOM     93  H   UNL     1     152.611 168.250 190.503  0.00  0.00    +0.037 HD
BRANCH  92  94
ATOM     94  C   UNL     1     152.171 167.406 188.598  0.00  0.00    -0.056 C 
ATOM     95  H   UNL     1     152.447 168.397 188.224  0.00  0.00    +0.023 HD
ATOM     96  H   UNL     1     151.249 167.102 188.095  0.00  0.00    +0.023 HD
ATOM     97  H   UNL     1     152.967 166.721 188.288  0.00  0.00    +0.023 HD
ENDBRANCH  92  94
BRANCH  92  98
ATOM     98  C   UNL     1     152.674 166.107 190.719  0.00  0.00    +0.115 C 
ATOM     99  H   UNL     1     151.888 165.594 191.290  0.00  0.00    +0.074 HD
BRANCH  98 100
ATOM    100  C   UNL     1     153.221 165.105 189.666  0.00  0.00    +0.013 C 
ATOM    101  H   UNL     1     152.908 165.434 188.670  0.00  0.00    +0.038 HD
BRANCH 100 102
ATOM    102  C   UNL     1     152.713 163.675 189.878  0.00  0.00    -0.056 C 
ATOM    103  H   UNL     1     151.634 163.645 190.042  0.00  0.00    +0.024 HD
ATOM    104  H   UNL     1     152.926 163.057 189.000  0.00  0.00    +0.024 HD
ATOM    105  H   UNL     1     153.191 163.205 190.745  0.00  0.00    +0.024 HD
ENDBRANCH 100 102
BRANCH 100 106
ATOM    106  C   UNL     1     154.742 165.079 189.681  0.00  0.00    -0.064 C 
ATOM    107  C   UNL     1     155.472 164.475 188.731  0.00  0.00    -0.005 C 
ATOM    108  H   UNL     1     155.216 165.605 190.503  0.00  0.00    +0.059 HD
ATOM    109  H   UNL     1     154.948 163.993 187.905  0.00  0.00    +0.078 HD
BRANCH 107 110
ATOM    110  N   UNL     1     156.854 164.397 188.657  0.00  0.00    -0.284 N 
ATOM    111  C   UNL     1     157.639 164.929 187.632  0.00  0.00    +0.206 C 
ATOM    112  O   UNL     1     157.292 165.553 186.639  0.00  0.00    -0.279 OA
ATOM    113  H   UNL     1     158.711 164.741 187.804  0.00  0.00    +0.126 HD
BRANCH 110 114
ATOM    114  C   UNL     1     157.532 163.739 189.770  0.00  0.00    +0.007 C 
ATOM    115  H   UNL     1     157.607 164.392 190.644  0.00  0.00    +0.043 HD
ATOM    116  H   UNL     1     156.962 162.847 190.051  0.00  0.00    +0.043 HD
ATOM    117  H   UNL     1     158.538 163.446 189.463  0.00  0.00    +0.043 HD
ENDBRANCH 110 114
ENDBRANCH 107 110
ENDBRANCH 100 106
ENDBRANCH  98 100
BRANCH  98 118
ATOM    118  O   UNL     1     153.772 166.479 191.585  0.00  0.00    -0.461 OA
BRANCH 118 119
ATOM    119  C   UNL     1     153.461 166.732 192.885  0.00  0.00    +0.304 C 
ATOM    120  O   UNL     1     153.964 167.597 193.590  0.00  0.00    -0.251 OA
BRANCH 119 121
ATOM    121  C   UNL     1     152.426 165.766 193.370  0.00  0.00    +0.033 C 
ATOM    122  H   UNL     1     151.898 166.184 194.230  0.00  0.00    +0.034 HD
ATOM    123  H   UNL     1     151.703 165.579 192.571  0.00  0.00    +0.034 HD
ATOM    124  H   UNL     1     152.896 164.812 193.630  0.00  0.00    +0.034 HD
ENDBRANCH 119 121
ENDBRANCH 118 119
ENDBRANCH  98 118
ENDBRANCH  92  98
ENDBRANCH  90  92
BRANCH  90 125
ATOM    125  O   UNL     1     150.529 168.191 191.914  0.00  0.00    -0.459 OA
BRANCH 125 126
ATOM    126  C   UNL     1     150.679 169.546 192.033  0.00  0.00    +0.339 C 
ATOM    127  O   UNL     1     151.644 170.185 191.630  0.00  0.00    -0.248 OA
BRANCH 126 128
ATOM    128  C   UNL     1     149.421 170.160 192.662  0.00  0.00    +0.178 C 
ATOM    129  H   UNL     1     149.397 169.857 193.718  0.00  0.00    +0.074 HD
BRANCH 128 130
ATOM    130  C   UNL     1     149.553 171.690 192.612  0.00  0.00    +0.084 C 
ATOM    131  H   UNL     1     149.231 172.042 191.627  0.00  0.00    +0.059 HD
ATOM    132  H   UNL     1     150.600 171.991 192.732  0.00  0.00    +0.059 HD
BRANCH 130 133
ATOM    133  O   UNL     1     148.766 172.411 193.566  0.00  0.00    -0.380 OA
BRANCH 133 134
ATOM    134  C   UNL     1     147.740 173.206 192.985  0.00  0.00    +0.037 C 
ATOM    135  H   UNL     1     148.106 174.205 192.734  0.00  0.00    +0.052 HD
ATOM    136  H   UNL     1     147.413 172.718 192.062  0.00  0.00    +0.052 HD
ATOM    137  H   UNL     1     146.873 173.265 193.650  0.00  0.00    +0.052 HD
ENDBRANCH 133 134
ENDBRANCH 130 133
ENDBRANCH 128 130
BRANCH 128 138
ATOM    138  O   UNL     1     148.162 169.792 192.093  0.00  0.00    -0.366 OA
BRANCH 138 139
ATOM    139  C   UNL     1     147.971 170.307 190.782  0.00  0.00    +0.038 C 
ATOM    140  H   UNL     1     147.080 169.837 190.363  0.00  0.00    +0.052 HD
ATOM    141  H   UNL     1     147.812 171.387 190.812  0.00  0.00    +0.052 HD
ATOM    142  H   UNL     1     148.820 170.072 190.134  0.00  0.00    +0.052 HD
ENDBRANCH 138 139
ENDBRANCH 128 138
ENDBRANCH 126 128
ENDBRANCH 125 126
ENDBRANCH  90 125
ENDBRANCH  87  90
ENDBRANCH  84  87
ENDBRANCH  78  84
ENDBRANCH  76  78
BRANCH  76 143
ATOM    143  O   UNL     1     144.936 166.965 192.037  0.00  0.00    -0.379 OA
BRANCH 143 144
ATOM    144  C   UNL     1     144.359 166.229 193.109  0.00  0.00    +0.037 C 
ATOM    145  H   UNL     1     145.163 165.922 193.784  0.00  0.00    +0.052 HD
ATOM    146  H   UNL     1     143.846 165.338 192.741  0.00  0.00    +0.052 HD
ATOM    147  H   UNL     1     143.659 166.862 193.665  0.00  0.00    +0.052 HD
ENDBRANCH 143 144
ENDBRANCH  76 143
ENDBRANCH   1  76
TORSDOF 35
ENDMDL
MODEL 10
REMARK VINA RESULT:      -5.6      6.443     11.753
REMARK  Name = Mycalolide B_conf2
REMARK  35 active torsions:
REMARK  status: ('A' for Active; 'I' for Inactive)
REMARK    1  A    between atoms: C_1  and  C_2
REMARK    2  A    between atoms: C_3  and  O_72
REMARK    3  A    between atoms: C_22  and  O_70
REMARK    4  A    between atoms: C_23  and  C_69
REMARK    5  A    between atoms: C_29  and  O_68
REMARK    6  A    between atoms: C_34  and  C_35
REMARK    7  A    between atoms: C_35  and  C_36
REMARK    8  A    between atoms: C_36  and  C_37
REMARK    9  A    between atoms: C_36  and  O_66
REMARK   10  A    between atoms: C_37  and  C_38
REMARK   11  A    between atoms: C_37  and  C_39
REMARK   12  A    between atoms: C_39  and  C_40
REMARK   13  A    between atoms: C_40  and  C_41
REMARK   14  A    between atoms: C_41  and  C_42
REMARK   15  A    between atoms: C_41  and  O_57
REMARK   16  A    between atoms: C_42  and  C_43
REMARK   17  A    between atoms: C_42  and  C_44
REMARK   18  A    between atoms: C_44  and  C_45
REMARK   19  A    between atoms: C_44  and  O_53
REMARK   20  A    between atoms: C_45  and  C_46
REMARK   21  A    between atoms: C_45  and  C_47
REMARK   22  A    between atoms: C_48  and  N_49
REMARK   23  A    between atoms: N_49  and  C_50
REMARK   24  A    between atoms: O_53  and  C_54
REMARK   25  A    between atoms: C_54  and  C_56
REMARK   26  A    between atoms: O_57  and  C_58
REMARK   27  A    between atoms: C_58  and  C_60
REMARK   28  A    between atoms: C_60  and  C_61
REMARK   29  A    between atoms: C_60  and  O_64
REMARK   30  A    between atoms: C_61  and  O_62
REMARK   31  A    between atoms: O_62  and  C_63
REMARK   32  A    between atoms: O_64  and  C_65
REMARK   33  A    between atoms: O_66  and  C_67
REMARK   34  A    between atoms: O_70  and  C_71
REMARK   35  A    between atoms: O_72  and  C_73
REMARK                            x       y       z     vdW  Elec       q    Type
REMARK                         _______ _______ _______ _____ _____    ______ ____
ROOT
ATOM      1  C   UNL     1     147.432 165.308 186.989  0.00  0.00    +0.011 C 
ATOM      2  H   UNL     1     146.416 165.715 186.989  0.00  0.00    +0.033 HD
ATOM      3  H   UNL     1     147.402 164.458 187.671  0.00  0.00    +0.033 HD
ENDROOT
BRANCH   1  36
ATOM      4  C   UNL     1     148.037 163.349 185.326  0.00  0.00    +0.020 C 
ATOM      5  C   UNL     1     147.008 162.293 185.831  0.00  0.00    +0.068 C 
ATOM      6  C   UNL     1     145.528 162.457 185.390  0.00  0.00    -0.008 C 
ATOM      7  C   UNL     1     144.708 163.446 186.170  0.00  0.00    -0.077 C 
ATOM      8  C   UNL     1     143.966 163.126 187.245  0.00  0.00    -0.003 C 
ATOM      9  C   UNL     1     143.309 164.134 188.001  0.00  0.00    +0.220 A 
ATOM     10  N   UNL     1     143.298 165.437 187.748  0.00  0.00    -0.205 NA
ATOM     11  C   UNL     1     142.605 166.000 188.790  0.00  0.00    +0.164 A 
ATOM     12  C   UNL     1     142.183 165.024 189.648  0.00  0.00    +0.125 A 
ATOM     13  O   UNL     1     142.598 163.828 189.151  0.00  0.00    -0.443 OA
ATOM     14  C   UNL     1     142.349 167.524 188.985  0.00  0.00    +0.250 A 
ATOM     15  N   UNL     1     142.767 168.451 188.141  0.00  0.00    -0.203 NA
ATOM     16  C   UNL     1     142.346 169.631 188.703  0.00  0.00    +0.164 A 
ATOM     17  C   UNL     1     141.687 169.380 189.878  0.00  0.00    +0.125 A 
ATOM     18  O   UNL     1     141.675 168.034 190.072  0.00  0.00    -0.442 OA
ATOM     19  C   UNL     1     142.574 171.052 188.104  0.00  0.00    +0.249 A 
ATOM     20  N   UNL     1     143.198 171.272 186.959  0.00  0.00    -0.210 NA
ATOM     21  C   UNL     1     143.160 172.639 186.803  0.00  0.00    +0.109 A 
ATOM     22  C   UNL     1     142.513 173.202 187.877  0.00  0.00    +0.118 A 
ATOM     23  O   UNL     1     142.136 172.203 188.719  0.00  0.00    -0.442 OA
ATOM     24  C   UNL     1     143.766 173.292 185.603  0.00  0.00    +0.113 C 
ATOM     25  C   UNL     1     145.274 173.608 185.749  0.00  0.00    +0.051 C 
ATOM     26  C   UNL     1     146.012 172.927 184.600  0.00  0.00    +0.161 C 
ATOM     27  O   UNL     1     146.427 173.582 183.642  0.00  0.00    -0.292 OA
ATOM     28  C   UNL     1     146.182 171.445 184.631  0.00  0.00    -0.023 C 
ATOM     29  C   UNL     1     146.492 170.777 183.505  0.00  0.00    -0.078 C 
ATOM     30  C   UNL     1     146.714 169.292 183.412  0.00  0.00    -0.008 C 
ATOM     31  C   UNL     1     145.563 168.417 183.953  0.00  0.00    +0.069 C 
ATOM     32  C   UNL     1     145.626 166.976 183.442  0.00  0.00    +0.071 C 
ATOM     33  C   UNL     1     146.914 166.296 183.836  0.00  0.00    +0.310 C 
ATOM     34  O   UNL     1     148.020 166.611 183.421  0.00  0.00    -0.251 OA
ATOM     35  O   UNL     1     146.661 165.301 184.730  0.00  0.00    -0.461 OA
ATOM     36  C   UNL     1     147.764 164.858 185.556  0.00  0.00    +0.110 C 
ATOM     37  H   UNL     1     148.982 163.148 185.844  0.00  0.00    +0.036 HD
ATOM     38  H   UNL     1     147.316 161.325 185.411  0.00  0.00    +0.060 HD
ATOM     39  H   UNL     1     145.047 161.475 185.498  0.00  0.00    +0.033 HD
ATOM     40  H   UNL     1     145.466 162.696 184.322  0.00  0.00    +0.033 HD
ATOM     41  H   UNL     1     144.756 164.488 185.859  0.00  0.00    +0.057 HD
ATOM     42  H   UNL     1     143.914 162.106 187.607  0.00  0.00    +0.067 HD
ATOM     43  H   UNL     1     141.604 164.997 190.561  0.00  0.00    +0.105 HD
ATOM     44  H   UNL     1     141.206 169.988 190.629  0.00  0.00    +0.105 HD
ATOM     45  H   UNL     1     142.254 174.210 188.167  0.00  0.00    +0.105 HD
ATOM     46  H   UNL     1     143.621 172.603 184.756  0.00  0.00    +0.067 HD
ATOM     47  H   UNL     1     145.429 174.684 185.584  0.00  0.00    +0.041 HD
ATOM     48  H   UNL     1     146.038 170.924 185.574  0.00  0.00    +0.065 HD
ATOM     49  H   UNL     1     146.615 171.338 182.573  0.00  0.00    +0.057 HD
ATOM     50  H   UNL     1     146.869 169.059 182.353  0.00  0.00    +0.033 HD
ATOM     51  H   UNL     1     147.649 169.072 183.940  0.00  0.00    +0.033 HD
ATOM     52  H   UNL     1     144.606 168.851 183.636  0.00  0.00    +0.060 HD
ATOM     53  H   UNL     1     145.545 166.935 182.351  0.00  0.00    +0.040 HD
ATOM     54  H   UNL     1     144.781 166.403 183.846  0.00  0.00    +0.040 HD
ATOM     55  H   UNL     1     148.679 165.384 185.246  0.00  0.00    +0.074 HD
BRANCH   4  56
ATOM     56  C   UNL     1     148.318 163.110 183.831  0.00  0.00    -0.057 C 
ATOM     57  H   UNL     1     149.217 162.499 183.698  0.00  0.00    +0.023 HD
ATOM     58  H   UNL     1     148.494 164.058 183.315  0.00  0.00    +0.023 HD
ATOM     59  H   UNL     1     147.490 162.602 183.330  0.00  0.00    +0.023 HD
ENDBRANCH   4  56
BRANCH  25  60
ATOM     60  C   UNL     1     145.938 173.295 187.089  0.00  0.00    -0.053 C 
ATOM     61  H   UNL     1     145.709 174.071 187.826  0.00  0.00    +0.024 HD
ATOM     62  H   UNL     1     145.629 172.332 187.505  0.00  0.00    +0.024 HD
ATOM     63  H   UNL     1     147.027 173.255 186.985  0.00  0.00    +0.024 HD
ENDBRANCH  25  60
BRANCH  31  64
ATOM     64  O   UNL     1     145.582 168.425 185.383  0.00  0.00    -0.391 OA
ATOM     65  H   UNL     1     146.210 169.116 185.676  0.00  0.00    +0.210 HD
ENDBRANCH  31  64
BRANCH  24  66
ATOM     66  O   UNL     1     143.088 174.526 185.274  0.00  0.00    -0.373 OA
BRANCH  66  67
ATOM     67  C   UNL     1     142.059 174.340 184.303  0.00  0.00    +0.037 C 
ATOM     68  H   UNL     1     142.068 175.150 183.565  0.00  0.00    +0.052 HD
ATOM     69  H   UNL     1     142.234 173.389 183.785  0.00  0.00    +0.052 HD
ATOM     70  H   UNL     1     141.079 174.290 184.796  0.00  0.00    +0.052 HD
ENDBRANCH  66  67
ENDBRANCH  24  66
BRANCH   5  71
ATOM     71  O   UNL     1     147.026 162.138 187.260  0.00  0.00    -0.379 OA
BRANCH  71  72
ATOM     72  C   UNL     1     147.879 161.106 187.732  0.00  0.00    +0.037 C 
ATOM     73  H   UNL     1     147.980 160.325 186.975  0.00  0.00    +0.052 HD
ATOM     74  H   UNL     1     147.418 160.667 188.622  0.00  0.00    +0.052 HD
ATOM     75  H   UNL     1     148.864 161.487 188.014  0.00  0.00    +0.052 HD
ENDBRANCH  71  72
ENDBRANCH   5  71
ENDBRANCH   1  36
BRANCH   1  76
ATOM     76  C   UNL     1     148.413 166.357 187.546  0.00  0.00    +0.064 C 
ATOM     77  H   UNL     1     147.850 167.194 187.979  0.00  0.00    +0.060 HD
BRANCH  76  78
ATOM     78  C   UNL     1     149.286 165.712 188.672  0.00  0.00    -0.017 C 
ATOM     79  H   UNL     1     148.624 165.100 189.305  0.00  0.00    +0.032 HD
BRANCH  78  80
ATOM     80  C   UNL     1     150.355 164.760 188.132  0.00  0.00    -0.060 C 
ATOM     81  H   UNL     1     149.947 164.118 187.346  0.00  0.00    +0.023 HD
ATOM     82  H   UNL     1     150.763 164.125 188.922  0.00  0.00    +0.023 HD
ATOM     83  H   UNL     1     151.183 165.310 187.671  0.00  0.00    +0.023 HD
ENDBRANCH  78  80
BRANCH  78  84
ATOM     84  C   UNL     1     149.893 166.848 189.542  0.00  0.00    -0.045 C 
ATOM     85  H   UNL     1     150.865 167.136 189.136  0.00  0.00    +0.027 HD
ATOM     86  H   UNL     1     149.265 167.739 189.428  0.00  0.00    +0.027 HD
BRANCH  84  87
ATOM     87  C   UNL     1     149.975 166.570 191.049  0.00  0.00    -0.015 C 
ATOM     88  H   UNL     1     149.150 165.881 191.273  0.00  0.00    +0.030 HD
ATOM     89  H   UNL     1     150.906 166.041 191.278  0.00  0.00    +0.030 HD
BRANCH  87  90
ATOM     90  C   UNL     1     149.817 167.809 191.958  0.00  0.00    +0.109 C 
ATOM     91  H   UNL     1     148.786 167.826 192.314  0.00  0.00    +0.074 HD
BRANCH  90  92
ATOM     92  C   UNL     1     150.083 169.129 191.170  0.00  0.00    +0.031 C 
ATOM     93  H   UNL     1     150.357 168.840 190.147  0.00  0.00    +0.037 HD
BRANCH  92  94
ATOM     94  C   UNL     1     151.281 169.912 191.738  0.00  0.00    -0.056 C 
ATOM     95  H   UNL     1     151.022 170.958 191.932  0.00  0.00    +0.023 HD
ATOM     96  H   UNL     1     152.138 169.899 191.058  0.00  0.00    +0.023 HD
ATOM     97  H   UNL     1     151.602 169.485 192.693  0.00  0.00    +0.023 HD
ENDBRANCH  92  94
BRANCH  92  98
ATOM     98  C   UNL     1     148.842 170.075 191.055  0.00  0.00    +0.115 C 
ATOM     99  H   UNL     1     149.200 171.000 190.584  0.00  0.00    +0.074 HD
BRANCH  98 100
ATOM    100  C   UNL     1     147.672 169.529 190.193  0.00  0.00    +0.013 C 
ATOM    101  H   UNL     1     148.087 169.005 189.325  0.00  0.00    +0.038 HD
BRANCH 100 102
ATOM    102  C   UNL     1     146.738 170.631 189.683  0.00  0.00    -0.056 C 
ATOM    103  H   UNL     1     145.911 170.227 189.095  0.00  0.00    +0.024 HD
ATOM    104  H   UNL     1     146.301 171.184 190.521  0.00  0.00    +0.024 HD
ATOM    105  H   UNL     1     147.272 171.347 189.049  0.00  0.00    +0.024 HD
ENDBRANCH 100 102
BRANCH 100 106
ATOM    106  C   UNL     1     146.843 168.524 190.978  0.00  0.00    -0.064 C 
ATOM    107  C   UNL     1     146.245 167.466 190.408  0.00  0.00    -0.005 C 
ATOM    108  H   UNL     1     146.777 168.697 192.047  0.00  0.00    +0.059 HD
ATOM    109  H   UNL     1     146.373 167.315 189.336  0.00  0.00    +0.078 HD
BRANCH 107 110
ATOM    110  N   UNL     1     145.472 166.500 191.035  0.00  0.00    -0.284 N 
ATOM    111  C   UNL     1     144.453 166.754 191.953  0.00  0.00    +0.206 C 
ATOM    112  O   UNL     1     144.038 167.827 192.371  0.00  0.00    -0.279 OA
ATOM    113  H   UNL     1     143.983 165.821 192.305  0.00  0.00    +0.126 HD
BRANCH 110 114
ATOM    114  C   UNL     1     145.731 165.113 190.660  0.00  0.00    +0.007 C 
ATOM    115  H   UNL     1     146.517 164.666 191.275  0.00  0.00    +0.043 HD
ATOM    116  H   UNL     1     144.812 164.535 190.796  0.00  0.00    +0.043 HD
ATOM    117  H   UNL     1     146.036 165.069 189.612  0.00  0.00    +0.043 HD
ENDBRANCH 110 114
ENDBRANCH 107 110
ENDBRANCH 100 106
ENDBRANCH  98 100
BRANCH  98 118
ATOM    118  O   UNL     1     148.325 170.343 192.379  0.00  0.00    -0.461 OA
BRANCH 118 119
ATOM    119  C   UNL     1     148.126 171.651 192.700  0.00  0.00    +0.304 C 
ATOM    120  O   UNL     1     147.132 172.314 192.432  0.00  0.00    -0.251 OA
BRANCH 119 121
ATOM    121  C   UNL     1     149.324 172.201 193.408  0.00  0.00    +0.033 C 
ATOM    122  H   UNL     1     149.195 172.106 194.488  0.00  0.00    +0.034 HD
ATOM    123  H   UNL     1     150.211 171.637 193.109  0.00  0.00    +0.034 HD
ATOM    124  H   UNL     1     149.478 173.247 193.126  0.00  0.00    +0.034 HD
ENDBRANCH 119 121
ENDBRANCH 118 119
ENDBRANCH  98 118
ENDBRANCH  92  98
ENDBRANCH  90  92
BRANCH  90 125
ATOM    125  O   UNL     1     150.742 167.708 193.061  0.00  0.00    -0.459 OA
BRANCH 125 126
ATOM    126  C   UNL     1     150.919 166.469 193.617  0.00  0.00    +0.339 C 
ATOM    127  O   UNL     1     151.822 165.693 193.330  0.00  0.00    -0.248 OA
BRANCH 126 128
ATOM    128  C   UNL     1     149.874 166.233 194.716  0.00  0.00    +0.178 C 
ATOM    129  H   UNL     1     149.227 167.120 194.755  0.00  0.00    +0.074 HD
BRANCH 128 130
ATOM    130  C   UNL     1     149.007 165.032 194.307  0.00  0.00    +0.084 C 
ATOM    131  H   UNL     1     148.784 164.436 195.198  0.00  0.00    +0.059 HD
ATOM    132  H   UNL     1     149.551 164.380 193.615  0.00  0.00    +0.059 HD
BRANCH 130 133
ATOM    133  O   UNL     1     147.741 165.354 193.720  0.00  0.00    -0.380 OA
BRANCH 133 134
ATOM    134  C   UNL     1     146.662 165.373 194.647  0.00  0.00    +0.037 C 
ATOM    135  H   UNL     1     146.655 166.299 195.229  0.00  0.00    +0.052 HD
ATOM    136  H   UNL     1     145.728 165.315 194.082  0.00  0.00    +0.052 HD
ATOM    137  H   UNL     1     146.704 164.500 195.305  0.00  0.00    +0.052 HD
ENDBRANCH 133 134
ENDBRANCH 130 133
ENDBRANCH 128 130
BRANCH 128 138
ATOM    138  O   UNL     1     150.362 166.013 196.042  0.00  0.00    -0.366 OA
BRANCH 138 139
ATOM    139  C   UNL     1     150.426 164.637 196.392  0.00  0.00    +0.038 C 
ATOM    140  H   UNL     1     150.655 164.070 195.488  0.00  0.00    +0.052 HD
ATOM    141  H   UNL     1     151.220 164.462 197.121  0.00  0.00    +0.052 HD
ATOM    142  H   UNL     1     149.470 164.281 196.787  0.00  0.00    +0.052 HD
ENDBRANCH 138 139
ENDBRANCH 128 138
ENDBRANCH 126 128
ENDBRANCH 125 126
ENDBRANCH  90 125
ENDBRANCH  87  90
ENDBRANCH  84  87
ENDBRANCH  78  84
ENDBRANCH  76  78
BRANCH  76 143
ATOM    143  O   UNL     1     149.213 166.818 186.448  0.00  0.00    -0.379 OA
BRANCH 143 144
ATOM    144  C   UNL     1     149.087 168.218 186.229  0.00  0.00    +0.037 C 
ATOM    145  H   UNL     1     150.077 168.617 185.994  0.00  0.00    +0.052 HD
ATOM    146  H   UNL     1     148.704 168.720 187.119  0.00  0.00    +0.052 HD
ATOM    147  H   UNL     1     148.424 168.405 185.377  0.00  0.00    +0.052 HD
ENDBRANCH 143 144
ENDBRANCH  76 143
ENDBRANCH   1  76
TORSDOF 35
ENDMDL
