MODEL 1
REMARK VINA RESULT:      -4.6      0.000      0.000
REMARK  Name = Mycalolide B_conf1
REMARK  35 active torsions:
REMARK  status: ('A' for Active; 'I' for Inactive)
REMARK    1  A    between atoms: C_1  and  C_2
REMARK    2  A    between atoms: C_3  and  O_72
REMARK    3  A    between atoms: C_22  and  O_70
REMARK    4  A    between atoms: C_23  and  C_69
REMARK    5  A    between atoms: C_29  and  O_68
REMARK    6  A    between atoms: C_34  and  C_35
REMARK    7  A    between atoms: C_35  and  C_36
REMARK    8  A    between atoms: C_36  and  C_37
REMARK    9  A    between atoms: C_36  and  O_66
REMARK   10  A    between atoms: C_37  and  C_38
REMARK   11  A    between atoms: C_37  and  C_39
REMARK   12  A    between atoms: C_39  and  C_40
REMARK   13  A    between atoms: C_40  and  C_41
REMARK   14  A    between atoms: C_41  and  C_42
REMARK   15  A    between atoms: C_41  and  O_57
REMARK   16  A    between atoms: C_42  and  C_43
REMARK   17  A    between atoms: C_42  and  C_44
REMARK   18  A    between atoms: C_44  and  C_45
REMARK   19  A    between atoms: C_44  and  O_53
REMARK   20  A    between atoms: C_45  and  C_46
REMARK   21  A    between atoms: C_45  and  C_47
REMARK   22  A    between atoms: C_48  and  N_49
REMARK   23  A    between atoms: N_49  and  C_50
REMARK   24  A    between atoms: O_53  and  C_54
REMARK   25  A    between atoms: C_54  and  C_56
REMARK   26  A    between atoms: O_57  and  C_58
REMARK   27  A    between atoms: C_58  and  C_60
REMARK   28  A    between atoms: C_60  and  C_61
REMARK   29  A    between atoms: C_60  and  O_64
REMARK   30  A    between atoms: C_61  and  O_62
REMARK   31  A    between atoms: O_62  and  C_63
REMARK   32  A    between atoms: O_64  and  C_65
REMARK   33  A    between atoms: O_66  and  C_67
REMARK   34  A    between atoms: O_70  and  C_71
REMARK   35  A    between atoms: O_72  and  C_73
REMARK                            x       y       z     vdW  Elec       q    Type
REMARK                         _______ _______ _______ _____ _____    ______ ____
ROOT
ATOM      1  C   UNL     1     151.165 167.665 189.993  0.00  0.00    +0.011 C 
ATOM      2  H   UNL     1     150.630 168.485 189.497  0.00  0.00    +0.033 HD
ATOM      3  H   UNL     1     152.028 168.141 190.471  0.00  0.00    +0.033 HD
ENDROOT
BRANCH   1  36
ATOM      4  C   UNL     1     150.495 167.599 192.501  0.00  0.00    +0.020 C 
ATOM      5  C   UNL     1     151.468 166.797 193.417  0.00  0.00    +0.068 C 
ATOM      6  C   UNL     1     152.904 166.532 192.885  0.00  0.00    -0.008 C 
ATOM      7  C   UNL     1     153.016 165.441 191.856  0.00  0.00    -0.077 C 
ATOM      8  C   UNL     1     154.028 165.282 190.988  0.00  0.00    -0.003 C 
ATOM      9  C   UNL     1     153.986 164.218 190.042  0.00  0.00    +0.220 A 
ATOM     10  N   UNL     1     152.905 163.531 189.706  0.00  0.00    -0.205 NA
ATOM     11  C   UNL     1     153.321 162.609 188.781  0.00  0.00    +0.164 A 
ATOM     12  C   UNL     1     154.659 162.769 188.550  0.00  0.00    +0.125 A 
ATOM     13  O   UNL     1     155.097 163.800 189.326  0.00  0.00    -0.443 OA
ATOM     14  C   UNL     1     152.383 161.554 188.122  0.00  0.00    +0.250 A 
ATOM     15  N   UNL     1     151.091 161.496 188.381  0.00  0.00    -0.203 NA
ATOM     16  C   UNL     1     150.635 160.443 187.629  0.00  0.00    +0.164 A 
ATOM     17  C   UNL     1     151.675 159.889 186.930  0.00  0.00    +0.125 A 
ATOM     18  O   UNL     1     152.804 160.594 187.228  0.00  0.00    -0.442 OA
ATOM     19  C   UNL     1     149.153 159.957 187.587  0.00  0.00    +0.249 A 
ATOM     20  N   UNL     1     148.180 160.542 188.269  0.00  0.00    -0.210 NA
ATOM     21  C   UNL     1     147.042 159.842 187.937  0.00  0.00    +0.109 A 
ATOM     22  C   UNL     1     147.378 158.834 187.062  0.00  0.00    +0.118 A 
ATOM     23  O   UNL     1     148.719 158.891 186.832  0.00  0.00    -0.442 OA
ATOM     24  C   UNL     1     145.695 160.250 188.457  0.00  0.00    +0.113 C 
ATOM     25  C   UNL     1     145.436 161.749 188.196  0.00  0.00    +0.051 C 
ATOM     26  C   UNL     1     144.035 162.101 188.676  0.00  0.00    +0.161 C 
ATOM     27  O   UNL     1     143.058 161.403 188.407  0.00  0.00    -0.292 OA
ATOM     28  C   UNL     1     143.803 163.360 189.446  0.00  0.00    -0.023 C 
ATOM     29  C   UNL     1     144.596 164.444 189.397  0.00  0.00    -0.078 C 
ATOM     30  C   UNL     1     144.310 165.713 190.155  0.00  0.00    -0.008 C 
ATOM     31  C   UNL     1     145.449 166.130 191.105  0.00  0.00    +0.069 C 
ATOM     32  C   UNL     1     146.647 166.730 190.359  0.00  0.00    +0.071 C 
ATOM     33  C   UNL     1     147.949 166.407 191.052  0.00  0.00    +0.310 C 
ATOM     34  O   UNL     1     148.138 165.441 191.775  0.00  0.00    -0.251 OA
ATOM     35  O   UNL     1     148.902 167.307 190.676  0.00  0.00    -0.461 OA
ATOM     36  C   UNL     1     150.271 167.019 191.071  0.00  0.00    +0.110 C 
ATOM     37  H   UNL     1     149.515 167.572 192.995  0.00  0.00    +0.036 HD
ATOM     38  H   UNL     1     151.600 167.377 194.341  0.00  0.00    +0.060 HD
ATOM     39  H   UNL     1     153.354 167.462 192.524  0.00  0.00    +0.033 HD
ATOM     40  H   UNL     1     153.502 166.198 193.744  0.00  0.00    +0.033 HD
ATOM     41  H   UNL     1     152.205 164.706 191.855  0.00  0.00    +0.057 HD
ATOM     42  H   UNL     1     154.887 165.942 190.983  0.00  0.00    +0.067 HD
ATOM     43  H   UNL     1     155.393 162.288 187.920  0.00  0.00    +0.105 HD
ATOM     44  H   UNL     1     151.779 159.068 186.241  0.00  0.00    +0.105 HD
ATOM     45  H   UNL     1     146.835 158.061 186.537  0.00  0.00    +0.105 HD
ATOM     46  H   UNL     1     144.915 159.653 187.964  0.00  0.00    +0.067 HD
ATOM     47  H   UNL     1     146.166 162.333 188.767  0.00  0.00    +0.041 HD
ATOM     48  H   UNL     1     142.886 163.354 190.029  0.00  0.00    +0.065 HD
ATOM     49  H   UNL     1     145.484 164.451 188.771  0.00  0.00    +0.057 HD
ATOM     50  H   UNL     1     144.114 166.521 189.439  0.00  0.00    +0.033 HD
ATOM     51  H   UNL     1     143.383 165.607 190.733  0.00  0.00    +0.033 HD
ATOM     52  H   UNL     1     145.734 165.272 191.724  0.00  0.00    +0.060 HD
ATOM     53  H   UNL     1     146.543 167.819 190.294  0.00  0.00    +0.040 HD
ATOM     54  H   UNL     1     146.741 166.327 189.346  0.00  0.00    +0.040 HD
ATOM     55  H   UNL     1     150.411 165.935 191.059  0.00  0.00    +0.074 HD
BRANCH   4  56
ATOM     56  C   UNL     1     150.864 169.091 192.506  0.00  0.00    -0.057 C 
ATOM     57  H   UNL     1     151.491 169.366 193.360  0.00  0.00    +0.023 HD
ATOM     58  H   UNL     1     151.392 169.367 191.587  0.00  0.00    +0.023 HD
ATOM     59  H   UNL     1     149.960 169.710 192.556  0.00  0.00    +0.023 HD
ENDBRANCH   4  56
BRANCH  25  60
ATOM     60  C   UNL     1     145.522 162.121 186.713  0.00  0.00    -0.053 C 
ATOM     61  H   UNL     1     146.558 162.104 186.355  0.00  0.00    +0.024 HD
ATOM     62  H   UNL     1     145.133 163.128 186.539  0.00  0.00    +0.024 HD
ATOM     63  H   UNL     1     144.952 161.423 186.094  0.00  0.00    +0.024 HD
ENDBRANCH  25  60
BRANCH  31  64
ATOM     64  O   UNL     1     144.945 167.139 191.991  0.00  0.00    -0.391 OA
ATOM     65  H   UNL     1     145.332 167.991 191.715  0.00  0.00    +0.210 HD
ENDBRANCH  31  64
BRANCH  24  66
ATOM     66  O   UNL     1     145.604 160.047 189.881  0.00  0.00    -0.373 OA
BRANCH  66  67
ATOM     67  C   UNL     1     145.372 158.692 190.238  0.00  0.00    +0.037 C 
ATOM     68  H   UNL     1     144.317 158.519 190.464  0.00  0.00    +0.052 HD
ATOM     69  H   UNL     1     145.996 158.410 191.092  0.00  0.00    +0.052 HD
ATOM     70  H   UNL     1     145.650 158.062 189.389  0.00  0.00    +0.052 HD
ENDBRANCH  66  67
ENDBRANCH  24  66
BRANCH   5  71
ATOM     71  O   UNL     1     150.921 165.522 193.792  0.00  0.00    -0.379 OA
BRANCH  71  72
ATOM     72  C   UNL     1     149.954 165.570 194.831  0.00  0.00    +0.037 C 
ATOM     73  H   UNL     1     150.351 165.020 195.691  0.00  0.00    +0.052 HD
ATOM     74  H   UNL     1     149.764 166.602 195.140  0.00  0.00    +0.052 HD
ATOM     75  H   UNL     1     149.021 165.091 194.531  0.00  0.00    +0.052 HD
ENDBRANCH  71  72
ENDBRANCH   5  71
ENDBRANCH   1  36
BRANCH   1  76
ATOM     76  C   UNL     1     151.714 166.720 188.903  0.00  0.00    +0.064 C 
ATOM     77  H   UNL     1     152.154 165.841 189.391  0.00  0.00    +0.060 HD
BRANCH  76  78
ATOM     78  C   UNL     1     150.703 166.204 187.838  0.00  0.00    -0.017 C 
ATOM     79  H   UNL     1     151.240 166.022 186.902  0.00  0.00    +0.032 HD
BRANCH  78  80
ATOM     80  C   UNL     1     150.006 164.904 188.274  0.00  0.00    -0.060 C 
ATOM     81  H   UNL     1     150.432 164.526 189.208  0.00  0.00    +0.023 HD
ATOM     82  H   UNL     1     150.110 164.123 187.515  0.00  0.00    +0.023 HD
ATOM     83  H   UNL     1     148.939 165.050 188.459  0.00  0.00    +0.023 HD
ENDBRANCH  78  80
BRANCH  78  84
ATOM     84  C   UNL     1     149.655 167.316 187.572  0.00  0.00    -0.045 C 
ATOM     85  H   UNL     1     148.702 166.971 187.974  0.00  0.00    +0.027 HD
ATOM     86  H   UNL     1     149.935 168.215 188.136  0.00  0.00    +0.027 HD
BRANCH  84  87
ATOM     87  C   UNL     1     149.457 167.697 186.105  0.00  0.00    -0.015 C 
ATOM     88  H   UNL     1     150.328 167.414 185.504  0.00  0.00    +0.030 HD
ATOM     89  H   UNL     1     149.406 168.792 186.025  0.00  0.00    +0.030 HD
BRANCH  87  90
ATOM     90  C   UNL     1     148.185 167.103 185.465  0.00  0.00    +0.109 C 
ATOM     91  H   UNL     1     148.036 167.601 184.500  0.00  0.00    +0.074 HD
BRANCH  90  92
ATOM     92  C   UNL     1     146.850 167.181 186.284  0.00  0.00    +0.031 C 
ATOM     93  H   UNL     1     147.150 167.525 187.283  0.00  0.00    +0.037 HD
BRANCH  92  94
ATOM     94  C   UNL     1     146.246 165.785 186.479  0.00  0.00    -0.056 C 
ATOM     95  H   UNL     1     146.030 165.277 185.537  0.00  0.00    +0.023 HD
ATOM     96  H   UNL     1     146.911 165.140 187.061  0.00  0.00    +0.023 HD
ATOM     97  H   UNL     1     145.311 165.843 187.042  0.00  0.00    +0.023 HD
ENDBRANCH  92  94
BRANCH  92  98
ATOM     98  C   UNL     1     145.845 168.239 185.731  0.00  0.00    +0.115 C 
ATOM     99  H   UNL     1     144.829 167.873 185.915  0.00  0.00    +0.074 HD
BRANCH  98 100
ATOM    100  C   UNL     1     145.942 169.691 186.291  0.00  0.00    +0.013 C 
ATOM    101  H   UNL     1     144.941 170.138 186.206  0.00  0.00    +0.038 HD
BRANCH 100 102
ATOM    102  C   UNL     1     146.832 170.616 185.454  0.00  0.00    -0.056 C 
ATOM    103  H   UNL     1     147.225 170.122 184.561  0.00  0.00    +0.024 HD
ATOM    104  H   UNL     1     146.276 171.502 185.133  0.00  0.00    +0.024 HD
ATOM    105  H   UNL     1     147.691 170.961 186.042  0.00  0.00    +0.024 HD
ENDBRANCH 100 102
BRANCH 100 106
ATOM    106  C   UNL     1     146.313 169.738 187.760  0.00  0.00    -0.064 C 
ATOM    107  C   UNL     1     146.030 170.804 188.523  0.00  0.00    -0.005 C 
ATOM    108  H   UNL     1     146.820 168.868 188.160  0.00  0.00    +0.059 HD
ATOM    109  H   UNL     1     145.518 171.652 188.062  0.00  0.00    +0.078 HD
BRANCH 107 110
ATOM    110  N   UNL     1     146.299 170.975 189.873  0.00  0.00    -0.284 N 
ATOM    111  C   UNL     1     147.354 170.392 190.560  0.00  0.00    +0.206 C 
ATOM    112  O   UNL     1     147.607 170.529 191.755  0.00  0.00    -0.279 OA
ATOM    113  H   UNL     1     147.989 169.747 189.939  0.00  0.00    +0.126 HD
BRANCH 110 114
ATOM    114  C   UNL     1     145.376 171.816 190.631  0.00  0.00    +0.007 C 
ATOM    115  H   UNL     1     145.243 172.797 190.167  0.00  0.00    +0.043 HD
ATOM    116  H   UNL     1     144.400 171.325 190.691  0.00  0.00    +0.043 HD
ATOM    117  H   UNL     1     145.778 171.955 191.638  0.00  0.00    +0.043 HD
ENDBRANCH 110 114
ENDBRANCH 107 110
ENDBRANCH 100 106
ENDBRANCH  98 100
BRANCH  98 118
ATOM    118  O   UNL     1     146.049 168.317 184.292  0.00  0.00    -0.461 OA
BRANCH 118 119
ATOM    119  C   UNL     1     145.139 167.681 183.504  0.00  0.00    +0.304 C 
ATOM    120  O   UNL     1     145.222 166.527 183.114  0.00  0.00    -0.251 OA
BRANCH 119 121
ATOM    121  C   UNL     1     144.007 168.608 183.182  0.00  0.00    +0.033 C 
ATOM    122  H   UNL     1     143.803 168.583 182.110  0.00  0.00    +0.034 HD
ATOM    123  H   UNL     1     144.286 169.629 183.459  0.00  0.00    +0.034 HD
ATOM    124  H   UNL     1     143.118 168.323 183.751  0.00  0.00    +0.034 HD
ENDBRANCH 119 121
ENDBRANCH 118 119
ENDBRANCH  98 118
ENDBRANCH  92  98
ENDBRANCH  90  92
BRANCH  90 125
ATOM    125  O   UNL     1     148.451 165.690 185.258  0.00  0.00    -0.459 OA
BRANCH 125 126
ATOM    126  C   UNL     1     148.943 165.311 184.037  0.00  0.00    +0.339 C 
ATOM    127  O   UNL     1     148.675 165.853 182.972  0.00  0.00    -0.248 OA
BRANCH 126 128
ATOM    128  C   UNL     1     149.918 164.132 184.231  0.00  0.00    +0.178 C 
ATOM    129  H   UNL     1     149.999 163.610 183.266  0.00  0.00    +0.074 HD
BRANCH 128 130
ATOM    130  C   UNL     1     151.306 164.691 184.593  0.00  0.00    +0.084 C 
ATOM    131  H   UNL     1     151.222 165.681 185.055  0.00  0.00    +0.059 HD
ATOM    132  H   UNL     1     151.905 164.784 183.680  0.00  0.00    +0.059 HD
BRANCH 130 133
ATOM    133  O   UNL     1     151.983 163.819 185.507  0.00  0.00    -0.380 OA
BRANCH 133 134
ATOM    134  C   UNL     1     153.299 163.510 185.070  0.00  0.00    +0.037 C 
ATOM    135  H   UNL     1     153.812 162.893 185.814  0.00  0.00    +0.052 HD
ATOM    136  H   UNL     1     153.274 162.996 184.105  0.00  0.00    +0.052 HD
ATOM    137  H   UNL     1     153.851 164.449 184.955  0.00  0.00    +0.052 HD
ENDBRANCH 133 134
ENDBRANCH 130 133
ENDBRANCH 128 130
BRANCH 128 138
ATOM    138  O   UNL     1     149.583 163.160 185.225  0.00  0.00    -0.366 OA
BRANCH 138 139
ATOM    139  C   UNL     1     148.740 162.125 184.742  0.00  0.00    +0.038 C 
ATOM    140  H   UNL     1     149.283 161.465 184.056  0.00  0.00    +0.052 HD
ATOM    141  H   UNL     1     147.857 162.540 184.249  0.00  0.00    +0.052 HD
ATOM    142  H   UNL     1     148.404 161.532 185.597  0.00  0.00    +0.052 HD
ENDBRANCH 138 139
ENDBRANCH 128 138
ENDBRANCH 126 128
ENDBRANCH 125 126
ENDBRANCH  90 125
ENDBRANCH  87  90
ENDBRANCH  84  87
ENDBRANCH  78  84
ENDBRANCH  76  78
BRANCH  76 143
ATOM    143  O   UNL     1     152.742 167.443 188.192  0.00  0.00    -0.379 OA
BRANCH 143 144
ATOM    144  C   UNL     1     153.458 166.646 187.258  0.00  0.00    +0.037 C 
ATOM    145  H   UNL     1     153.754 167.284 186.420  0.00  0.00    +0.052 HD
ATOM    146  H   UNL     1     154.361 166.230 187.713  0.00  0.00    +0.052 HD
ATOM    147  H   UNL     1     152.819 165.844 186.872  0.00  0.00    +0.052 HD
ENDBRANCH 143 144
ENDBRANCH  76 143
ENDBRANCH   1  76
TORSDOF 35
ENDMDL
MODEL 2
REMARK VINA RESULT:      -4.5      2.658      8.571
REMARK  Name = Mycalolide B_conf1
REMARK  35 active torsions:
REMARK  status: ('A' for Active; 'I' for Inactive)
REMARK    1  A    between atoms: C_1  and  C_2
REMARK    2  A    between atoms: C_3  and  O_72
REMARK    3  A    between atoms: C_22  and  O_70
REMARK    4  A    between atoms: C_23  and  C_69
REMARK    5  A    between atoms: C_29  and  O_68
REMARK    6  A    between atoms: C_34  and  C_35
REMARK    7  A    between atoms: C_35  and  C_36
REMARK    8  A    between atoms: C_36  and  C_37
REMARK    9  A    between atoms: C_36  and  O_66
REMARK   10  A    between atoms: C_37  and  C_38
REMARK   11  A    between atoms: C_37  and  C_39
REMARK   12  A    between atoms: C_39  and  C_40
REMARK   13  A    between atoms: C_40  and  C_41
REMARK   14  A    between atoms: C_41  and  C_42
REMARK   15  A    between atoms: C_41  and  O_57
REMARK   16  A    between atoms: C_42  and  C_43
REMARK   17  A    between atoms: C_42  and  C_44
REMARK   18  A    between atoms: C_44  and  C_45
REMARK   19  A    between atoms: C_44  and  O_53
REMARK   20  A    between atoms: C_45  and  C_46
REMARK   21  A    between atoms: C_45  and  C_47
REMARK   22  A    between atoms: C_48  and  N_49
REMARK   23  A    between atoms: N_49  and  C_50
REMARK   24  A    between atoms: O_53  and  C_54
REMARK   25  A    between atoms: C_54  and  C_56
REMARK   26  A    between atoms: O_57  and  C_58
REMARK   27  A    between atoms: C_58  and  C_60
REMARK   28  A    between atoms: C_60  and  C_61
REMARK   29  A    between atoms: C_60  and  O_64
REMARK   30  A    between atoms: C_61  and  O_62
REMARK   31  A    between atoms: O_62  and  C_63
REMARK   32  A    between atoms: O_64  and  C_65
REMARK   33  A    between atoms: O_66  and  C_67
REMARK   34  A    between atoms: O_70  and  C_71
REMARK   35  A    between atoms: O_72  and  C_73
REMARK                            x       y       z     vdW  Elec       q    Type
REMARK                         _______ _______ _______ _____ _____    ______ ____
ROOT
ATOM      1  C   UNL     1     147.264 165.232 184.781  0.00  0.00    +0.011 C 
ATOM      2  H   UNL     1     147.555 165.405 183.737  0.00  0.00    +0.033 HD
ATOM      3  H   UNL     1     146.323 164.674 184.723  0.00  0.00    +0.033 HD
ENDROOT
BRANCH   1  36
ATOM      4  C   UNL     1     148.781 163.127 184.677  0.00  0.00    +0.020 C 
ATOM      5  C   UNL     1     148.064 161.787 185.024  0.00  0.00    +0.068 C 
ATOM      6  C   UNL     1     146.513 161.757 184.937  0.00  0.00    -0.008 C 
ATOM      7  C   UNL     1     145.792 162.408 186.085  0.00  0.00    -0.077 C 
ATOM      8  C   UNL     1     144.522 162.845 186.067  0.00  0.00    -0.003 C 
ATOM      9  C   UNL     1     143.977 163.476 187.222  0.00  0.00    +0.220 A 
ATOM     10  N   UNL     1     144.679 163.967 188.233  0.00  0.00    -0.205 NA
ATOM     11  C   UNL     1     143.760 164.465 189.118  0.00  0.00    +0.164 A 
ATOM     12  C   UNL     1     142.501 164.290 188.614  0.00  0.00    +0.125 A 
ATOM     13  O   UNL     1     142.619 163.681 187.400  0.00  0.00    -0.443 OA
ATOM     14  C   UNL     1     144.131 165.120 190.483  0.00  0.00    +0.250 A 
ATOM     15  N   UNL     1     145.381 165.279 190.874  0.00  0.00    -0.203 NA
ATOM     16  C   UNL     1     145.284 165.866 192.110  0.00  0.00    +0.164 A 
ATOM     17  C   UNL     1     143.965 166.046 192.434  0.00  0.00    +0.125 A 
ATOM     18  O   UNL     1     143.210 165.580 191.398  0.00  0.00    -0.442 OA
ATOM     19  C   UNL     1     146.500 166.261 193.004  0.00  0.00    +0.249 A 
ATOM     20  N   UNL     1     147.758 166.082 192.633  0.00  0.00    -0.210 NA
ATOM     21  C   UNL     1     148.510 166.583 193.672  0.00  0.00    +0.109 A 
ATOM     22  C   UNL     1     147.662 167.042 194.655  0.00  0.00    +0.118 A 
ATOM     23  O   UNL     1     146.379 166.840 194.246  0.00  0.00    -0.442 OA
ATOM     24  C   UNL     1     150.008 166.631 193.601  0.00  0.00    +0.113 C 
ATOM     25  C   UNL     1     150.475 167.307 192.294  0.00  0.00    +0.051 C 
ATOM     26  C   UNL     1     151.994 167.395 192.296  0.00  0.00    +0.161 C 
ATOM     27  O   UNL     1     152.624 167.787 193.279  0.00  0.00    -0.292 OA
ATOM     28  C   UNL     1     152.765 167.059 191.062  0.00  0.00    -0.023 C 
ATOM     29  C   UNL     1     152.269 167.108 189.814  0.00  0.00    -0.078 C 
ATOM     30  C   UNL     1     153.086 166.803 188.586  0.00  0.00    -0.008 C 
ATOM     31  C   UNL     1     152.499 165.667 187.726  0.00  0.00    +0.069 C 
ATOM     32  C   UNL     1     151.274 166.112 186.919  0.00  0.00    +0.071 C 
ATOM     33  C   UNL     1     150.283 164.985 186.749  0.00  0.00    +0.310 C 
ATOM     34  O   UNL     1     150.167 164.033 187.505  0.00  0.00    -0.251 OA
ATOM     35  O   UNL     1     149.481 165.240 185.676  0.00  0.00    -0.461 OA
ATOM     36  C   UNL     1     148.327 164.374 185.496  0.00  0.00    +0.110 C 
ATOM     37  H   UNL     1     149.842 162.979 184.916  0.00  0.00    +0.036 HD
ATOM     38  H   UNL     1     148.414 161.034 184.305  0.00  0.00    +0.060 HD
ATOM     39  H   UNL     1     146.177 162.164 183.978  0.00  0.00    +0.033 HD
ATOM     40  H   UNL     1     146.217 160.698 184.957  0.00  0.00    +0.033 HD
ATOM     41  H   UNL     1     146.362 162.493 187.014  0.00  0.00    +0.057 HD
ATOM     42  H   UNL     1     143.890 162.733 185.195  0.00  0.00    +0.067 HD
ATOM     43  H   UNL     1     141.500 164.521 188.947  0.00  0.00    +0.105 HD
ATOM     44  H   UNL     1     143.436 166.452 193.280  0.00  0.00    +0.105 HD
ATOM     45  H   UNL     1     147.789 167.514 195.618  0.00  0.00    +0.105 HD
ATOM     46  H   UNL     1     150.399 167.190 194.462  0.00  0.00    +0.067 HD
ATOM     47  H   UNL     1     150.154 166.688 191.448  0.00  0.00    +0.041 HD
ATOM     48  H   UNL     1     153.807 166.813 191.248  0.00  0.00    +0.065 HD
ATOM     49  H   UNL     1     151.237 167.402 189.640  0.00  0.00    +0.057 HD
ATOM     50  H   UNL     1     153.175 167.713 187.980  0.00  0.00    +0.033 HD
ATOM     51  H   UNL     1     154.113 166.542 188.872  0.00  0.00    +0.033 HD
ATOM     52  H   UNL     1     152.282 164.805 188.367  0.00  0.00    +0.060 HD
ATOM     53  H   UNL     1     151.583 166.462 185.928  0.00  0.00    +0.040 HD
ATOM     54  H   UNL     1     150.726 166.918 187.419  0.00  0.00    +0.040 HD
ATOM     55  H   UNL     1     147.958 164.085 186.484  0.00  0.00    +0.074 HD
BRANCH   4  56
ATOM     56  C   UNL     1     148.776 163.358 183.158  0.00  0.00    -0.057 C 
ATOM     57  H   UNL     1     148.689 162.425 182.592  0.00  0.00    +0.023 HD
ATOM     58  H   UNL     1     147.955 164.019 182.865  0.00  0.00    +0.023 HD
ATOM     59  H   UNL     1     149.709 163.841 182.841  0.00  0.00    +0.023 HD
ENDBRANCH   4  56
BRANCH  25  60
ATOM     60  C   UNL     1     149.931 168.729 192.129  0.00  0.00    -0.053 C 
ATOM     61  H   UNL     1     150.358 169.410 192.874  0.00  0.00    +0.024 HD
ATOM     62  H   UNL     1     148.845 168.749 192.254  0.00  0.00    +0.024 HD
ATOM     63  H   UNL     1     150.169 169.135 191.142  0.00  0.00    +0.024 HD
ENDBRANCH  25  60
BRANCH  31  64
ATOM     64  O   UNL     1     153.503 165.251 186.790  0.00  0.00    -0.391 OA
ATOM     65  H   UNL     1     153.095 165.254 185.903  0.00  0.00    +0.210 HD
ENDBRANCH  31  64
BRANCH  24  66
ATOM     66  O   UNL     1     150.571 165.304 193.614  0.00  0.00    -0.373 OA
BRANCH  66  67
ATOM     67  C   UNL     1     150.842 164.827 194.925  0.00  0.00    +0.037 C 
ATOM     68  H   UNL     1     151.205 163.797 194.902  0.00  0.00    +0.052 HD
ATOM     69  H   UNL     1     149.947 164.902 195.551  0.00  0.00    +0.052 HD
ATOM     70  H   UNL     1     151.620 165.457 195.364  0.00  0.00    +0.052 HD
ENDBRANCH  66  67
ENDBRANCH  24  66
BRANCH   5  71
ATOM     71  O   UNL     1     148.417 161.316 186.335  0.00  0.00    -0.379 OA
BRANCH  71  72
ATOM     72  C   UNL     1     149.686 160.686 186.422  0.00  0.00    +0.037 C 
ATOM     73  H   UNL     1     150.448 161.466 186.524  0.00  0.00    +0.052 HD
ATOM     74  H   UNL     1     149.740 160.035 187.301  0.00  0.00    +0.052 HD
ATOM     75  H   UNL     1     149.912 160.116 185.520  0.00  0.00    +0.052 HD
ENDBRANCH  71  72
ENDBRANCH   5  71
ENDBRANCH   1  36
BRANCH   1  76
ATOM     76  C   UNL     1     146.943 166.598 185.423  0.00  0.00    +0.064 C 
ATOM     77  H   UNL     1     147.139 166.533 186.501  0.00  0.00    +0.060 HD
BRANCH  76  78
ATOM     78  C   UNL     1     147.717 167.836 184.883  0.00  0.00    -0.017 C 
ATOM     79  H   UNL     1     148.537 167.488 184.246  0.00  0.00    +0.032 HD
BRANCH  78  80
ATOM     80  C   UNL     1     146.816 168.779 184.066  0.00  0.00    -0.060 C 
ATOM     81  H   UNL     1     146.766 169.769 184.528  0.00  0.00    +0.023 HD
ATOM     82  H   UNL     1     145.797 168.389 183.993  0.00  0.00    +0.023 HD
ATOM     83  H   UNL     1     147.190 168.930 183.051  0.00  0.00    +0.023 HD
ENDBRANCH  78  80
BRANCH  78  84
ATOM     84  C   UNL     1     148.340 168.591 186.085  0.00  0.00    -0.045 C 
ATOM     85  H   UNL     1     149.419 168.442 186.043  0.00  0.00    +0.027 HD
ATOM     86  H   UNL     1     148.160 169.667 185.967  0.00  0.00    +0.027 HD
BRANCH  84  87
ATOM     87  C   UNL     1     147.842 168.157 187.464  0.00  0.00    -0.015 C 
ATOM     88  H   UNL     1     148.679 167.989 188.150  0.00  0.00    +0.030 HD
ATOM     89  H   UNL     1     147.353 167.177 187.374  0.00  0.00    +0.030 HD
BRANCH  87  90
ATOM     90  C   UNL     1     146.845 169.139 188.113  0.00  0.00    +0.109 C 
ATOM     91  H   UNL     1     146.682 169.962 187.407  0.00  0.00    +0.074 HD
BRANCH  90  92
ATOM     92  C   UNL     1     147.219 169.742 189.512  0.00  0.00    +0.031 C 
ATOM     93  H   UNL     1     148.316 169.701 189.554  0.00  0.00    +0.037 HD
BRANCH  92  94
ATOM     94  C   UNL     1     146.716 168.842 190.647  0.00  0.00    -0.056 C 
ATOM     95  H   UNL     1     146.117 168.001 190.293  0.00  0.00    +0.023 HD
ATOM     96  H   UNL     1     147.547 168.438 191.234  0.00  0.00    +0.023 HD
ATOM     97  H   UNL     1     146.099 169.411 191.348  0.00  0.00    +0.023 HD
ENDBRANCH  92  94
BRANCH  92  98
ATOM     98  C   UNL     1     146.822 171.243 189.666  0.00  0.00    +0.115 C 
ATOM     99  H   UNL     1     147.424 171.829 188.964  0.00  0.00    +0.074 HD
BRANCH  98 100
ATOM    100  C   UNL     1     145.324 171.621 189.448  0.00  0.00    +0.013 C 
ATOM    101  H   UNL     1     144.794 170.697 189.176  0.00  0.00    +0.038 HD
BRANCH 100 102
ATOM    102  C   UNL     1     145.090 172.547 188.249  0.00  0.00    -0.056 C 
ATOM    103  H   UNL     1     144.514 173.439 188.516  0.00  0.00    +0.024 HD
ATOM    104  H   UNL     1     146.042 172.876 187.821  0.00  0.00    +0.024 HD
ATOM    105  H   UNL     1     144.537 172.025 187.461  0.00  0.00    +0.024 HD
ENDBRANCH 100 102
BRANCH 100 106
ATOM    106  C   UNL     1     144.656 172.150 190.700  0.00  0.00    -0.064 C 
ATOM    107  C   UNL     1     143.449 172.734 190.662  0.00  0.00    -0.005 C 
ATOM    108  H   UNL     1     145.204 172.034 191.628  0.00  0.00    +0.059 HD
ATOM    109  H   UNL     1     142.946 172.823 189.695  0.00  0.00    +0.078 HD
BRANCH 107 110
ATOM    110  N   UNL     1     142.720 173.247 191.724  0.00  0.00    -0.284 N 
ATOM    111  C   UNL     1     141.497 172.763 192.164  0.00  0.00    +0.206 C 
ATOM    112  O   UNL     1     140.835 173.205 193.101  0.00  0.00    -0.279 OA
ATOM    113  H   UNL     1     141.119 171.911 191.583  0.00  0.00    +0.126 HD
BRANCH 110 114
ATOM    114  C   UNL     1     143.280 174.407 192.413  0.00  0.00    +0.007 C 
ATOM    115  H   UNL     1     143.734 175.116 191.715  0.00  0.00    +0.043 HD
ATOM    116  H   UNL     1     142.489 174.921 192.965  0.00  0.00    +0.043 HD
ATOM    117  H   UNL     1     144.047 174.061 193.111  0.00  0.00    +0.043 HD
ENDBRANCH 110 114
ENDBRANCH 107 110
ENDBRANCH 100 106
ENDBRANCH  98 100
BRANCH  98 118
ATOM    118  O   UNL     1     147.176 171.646 191.019  0.00  0.00    -0.461 OA
BRANCH 118 119
ATOM    119  C   UNL     1     148.258 172.461 191.158  0.00  0.00    +0.304 C 
ATOM    120  O   UNL     1     148.658 173.256 190.323  0.00  0.00    -0.251 OA
BRANCH 119 121
ATOM    121  C   UNL     1     148.891 172.243 192.499  0.00  0.00    +0.033 C 
ATOM    122  H   UNL     1     148.320 171.501 193.060  0.00  0.00    +0.034 HD
ATOM    123  H   UNL     1     148.882 173.183 193.058  0.00  0.00    +0.034 HD
ATOM    124  H   UNL     1     149.927 171.920 192.374  0.00  0.00    +0.034 HD
ENDBRANCH 119 121
ENDBRANCH 118 119
ENDBRANCH  98 118
ENDBRANCH  92  98
ENDBRANCH  90  92
BRANCH  90 125
ATOM    125  O   UNL     1     145.609 168.402 188.308  0.00  0.00    -0.459 OA
BRANCH 125 126
ATOM    126  C   UNL     1     144.515 168.796 187.586  0.00  0.00    +0.339 C 
ATOM    127  O   UNL     1     144.541 169.575 186.641  0.00  0.00    -0.248 OA
BRANCH 126 128
ATOM    128  C   UNL     1     143.267 168.066 188.120  0.00  0.00    +0.178 C 
ATOM    129  H   UNL     1     143.510 166.995 188.175  0.00  0.00    +0.074 HD
BRANCH 128 130
ATOM    130  C   UNL     1     142.971 168.566 189.545  0.00  0.00    +0.084 C 
ATOM    131  H   UNL     1     143.172 169.640 189.634  0.00  0.00    +0.059 HD
ATOM    132  H   UNL     1     143.615 168.033 190.254  0.00  0.00    +0.059 HD
BRANCH 130 133
ATOM    133  O   UNL     1     141.601 168.331 189.894  0.00  0.00    -0.380 OA
BRANCH 133 134
ATOM    134  C   UNL     1     141.006 169.466 190.507  0.00  0.00    +0.037 C 
ATOM    135  H   UNL     1     140.328 169.155 191.308  0.00  0.00    +0.052 HD
ATOM    136  H   UNL     1     141.774 170.138 190.902  0.00  0.00    +0.052 HD
ATOM    137  H   UNL     1     140.426 170.001 189.748  0.00  0.00    +0.052 HD
ENDBRANCH 133 134
ENDBRANCH 130 133
ENDBRANCH 128 130
BRANCH 128 138
ATOM    138  O   UNL     1     142.057 168.199 187.368  0.00  0.00    -0.366 OA
BRANCH 138 139
ATOM    139  C   UNL     1     141.899 167.201 186.371  0.00  0.00    +0.038 C 
ATOM    140  H   UNL     1     141.196 166.427 186.698  0.00  0.00    +0.052 HD
ATOM    141  H   UNL     1     142.862 166.753 186.112  0.00  0.00    +0.052 HD
ATOM    142  H   UNL     1     141.495 167.677 185.473  0.00  0.00    +0.052 HD
ENDBRANCH 138 139
ENDBRANCH 128 138
ENDBRANCH 126 128
ENDBRANCH 125 126
ENDBRANCH  90 125
ENDBRANCH  87  90
ENDBRANCH  84  87
ENDBRANCH  78  84
ENDBRANCH  76  78
BRANCH  76 143
ATOM    143  O   UNL     1     145.538 166.852 185.203  0.00  0.00    -0.379 OA
BRANCH 143 144
ATOM    144  C   UNL     1     144.901 165.874 184.392  0.00  0.00    +0.037 C 
ATOM    145  H   UNL     1     145.418 164.921 184.536  0.00  0.00    +0.052 HD
ATOM    146  H   UNL     1     143.854 165.749 184.684  0.00  0.00    +0.052 HD
ATOM    147  H   UNL     1     144.973 166.150 183.334  0.00  0.00    +0.052 HD
ENDBRANCH 143 144
ENDBRANCH  76 143
ENDBRANCH   1  76
TORSDOF 35
ENDMDL
MODEL 3
REMARK VINA RESULT:      -4.5      2.252      8.916
REMARK  Name = Mycalolide B_conf1
REMARK  35 active torsions:
REMARK  status: ('A' for Active; 'I' for Inactive)
REMARK    1  A    between atoms: C_1  and  C_2
REMARK    2  A    between atoms: C_3  and  O_72
REMARK    3  A    between atoms: C_22  and  O_70
REMARK    4  A    between atoms: C_23  and  C_69
REMARK    5  A    between atoms: C_29  and  O_68
REMARK    6  A    between atoms: C_34  and  C_35
REMARK    7  A    between atoms: C_35  and  C_36
REMARK    8  A    between atoms: C_36  and  C_37
REMARK    9  A    between atoms: C_36  and  O_66
REMARK   10  A    between atoms: C_37  and  C_38
REMARK   11  A    between atoms: C_37  and  C_39
REMARK   12  A    between atoms: C_39  and  C_40
REMARK   13  A    between atoms: C_40  and  C_41
REMARK   14  A    between atoms: C_41  and  C_42
REMARK   15  A    between atoms: C_41  and  O_57
REMARK   16  A    between atoms: C_42  and  C_43
REMARK   17  A    between atoms: C_42  and  C_44
REMARK   18  A    between atoms: C_44  and  C_45
REMARK   19  A    between atoms: C_44  and  O_53
REMARK   20  A    between atoms: C_45  and  C_46
REMARK   21  A    between atoms: C_45  and  C_47
REMARK   22  A    between atoms: C_48  and  N_49
REMARK   23  A    between atoms: N_49  and  C_50
REMARK   24  A    between atoms: O_53  and  C_54
REMARK   25  A    between atoms: C_54  and  C_56
REMARK   26  A    between atoms: O_57  and  C_58
REMARK   27  A    between atoms: C_58  and  C_60
REMARK   28  A    between atoms: C_60  and  C_61
REMARK   29  A    between atoms: C_60  and  O_64
REMARK   30  A    between atoms: C_61  and  O_62
REMARK   31  A    between atoms: O_62  and  C_63
REMARK   32  A    between atoms: O_64  and  C_65
REMARK   33  A    between atoms: O_66  and  C_67
REMARK   34  A    between atoms: O_70  and  C_71
REMARK   35  A    between atoms: O_72  and  C_73
REMARK                            x       y       z     vdW  Elec       q    Type
REMARK                         _______ _______ _______ _____ _____    ______ ____
ROOT
ATOM      1  C   UNL     1     143.806 166.452 189.250  0.00  0.00    +0.011 C 
ATOM      2  H   UNL     1     143.343 167.421 189.476  0.00  0.00    +0.033 HD
ATOM      3  H   UNL     1     142.990 165.725 189.324  0.00  0.00    +0.033 HD
ENDROOT
BRANCH   1  36
ATOM      4  C   UNL     1     143.456 167.190 186.785  0.00  0.00    +0.020 C 
ATOM      5  C   UNL     1     142.485 166.288 185.964  0.00  0.00    +0.068 C 
ATOM      6  C   UNL     1     141.506 165.377 186.756  0.00  0.00    -0.008 C 
ATOM      7  C   UNL     1     142.117 164.137 187.346  0.00  0.00    -0.077 C 
ATOM      8  C   UNL     1     141.606 163.415 188.357  0.00  0.00    -0.003 C 
ATOM      9  C   UNL     1     142.313 162.276 188.838  0.00  0.00    +0.220 A 
ATOM     10  N   UNL     1     143.590 162.009 188.606  0.00  0.00    -0.205 NA
ATOM     11  C   UNL     1     143.846 160.824 189.244  0.00  0.00    +0.164 A 
ATOM     12  C   UNL     1     142.713 160.396 189.881  0.00  0.00    +0.125 A 
ATOM     13  O   UNL     1     141.734 161.316 189.652  0.00  0.00    -0.443 OA
ATOM     14  C   UNL     1     145.227 160.103 189.220  0.00  0.00    +0.250 A 
ATOM     15  N   UNL     1     146.279 160.609 188.606  0.00  0.00    -0.203 NA
ATOM     16  C   UNL     1     147.271 159.683 188.800  0.00  0.00    +0.164 A 
ATOM     17  C   UNL     1     146.787 158.632 189.533  0.00  0.00    +0.125 A 
ATOM     18  O   UNL     1     145.477 158.888 189.819  0.00  0.00    -0.442 OA
ATOM     19  C   UNL     1     148.729 159.816 188.259  0.00  0.00    +0.249 A 
ATOM     20  N   UNL     1     149.152 160.864 187.570  0.00  0.00    -0.210 NA
ATOM     21  C   UNL     1     150.481 160.609 187.314  0.00  0.00    +0.109 A 
ATOM     22  C   UNL     1     150.813 159.388 187.856  0.00  0.00    +0.118 A 
ATOM     23  O   UNL     1     149.708 158.869 188.458  0.00  0.00    -0.442 OA
ATOM     24  C   UNL     1     151.346 161.610 186.606  0.00  0.00    +0.113 C 
ATOM     25  C   UNL     1     151.237 162.999 187.273  0.00  0.00    +0.051 C 
ATOM     26  C   UNL     1     152.181 163.963 186.567  0.00  0.00    +0.161 C 
ATOM     27  O   UNL     1     153.344 163.660 186.300  0.00  0.00    -0.292 OA
ATOM     28  C   UNL     1     151.725 165.345 186.232  0.00  0.00    -0.023 C 
ATOM     29  C   UNL     1     150.734 165.997 186.862  0.00  0.00    -0.078 C 
ATOM     30  C   UNL     1     150.327 167.408 186.528  0.00  0.00    -0.008 C 
ATOM     31  C   UNL     1     148.843 167.540 186.133  0.00  0.00    +0.069 C 
ATOM     32  C   UNL     1     147.902 167.452 187.341  0.00  0.00    +0.071 C 
ATOM     33  C   UNL     1     146.589 166.804 186.974  0.00  0.00    +0.310 C 
ATOM     34  O   UNL     1     146.428 166.018 186.052  0.00  0.00    -0.251 OA
ATOM     35  O   UNL     1     145.635 167.159 187.882  0.00  0.00    -0.461 OA
ATOM     36  C   UNL     1     144.367 166.452 187.813  0.00  0.00    +0.110 C 
ATOM     37  H   UNL     1     144.135 167.652 186.057  0.00  0.00    +0.036 HD
ATOM     38  H   UNL     1     141.848 166.953 185.365  0.00  0.00    +0.060 HD
ATOM     39  H   UNL     1     140.978 165.958 187.519  0.00  0.00    +0.033 HD
ATOM     40  H   UNL     1     140.750 165.029 186.038  0.00  0.00    +0.033 HD
ATOM     41  H   UNL     1     143.042 163.794 186.873  0.00  0.00    +0.057 HD
ATOM     42  H   UNL     1     140.663 163.671 188.824  0.00  0.00    +0.067 HD
ATOM     43  H   UNL     1     142.450 159.545 190.491  0.00  0.00    +0.105 HD
ATOM     44  H   UNL     1     147.197 157.709 189.907  0.00  0.00    +0.105 HD
ATOM     45  H   UNL     1     151.714 158.796 187.916  0.00  0.00    +0.105 HD
ATOM     46  H   UNL     1     152.392 161.274 186.630  0.00  0.00    +0.067 HD
ATOM     47  H   UNL     1     150.209 163.360 187.159  0.00  0.00    +0.041 HD
ATOM     48  H   UNL     1     152.308 165.821 185.449  0.00  0.00    +0.065 HD
ATOM     49  H   UNL     1     150.191 165.524 187.677  0.00  0.00    +0.057 HD
ATOM     50  H   UNL     1     150.537 168.055 187.388  0.00  0.00    +0.033 HD
ATOM     51  H   UNL     1     150.950 167.797 185.712  0.00  0.00    +0.033 HD
ATOM     52  H   UNL     1     148.605 166.793 185.368  0.00  0.00    +0.060 HD
ATOM     53  H   UNL     1     147.702 168.454 187.736  0.00  0.00    +0.040 HD
ATOM     54  H   UNL     1     148.324 166.838 188.143  0.00  0.00    +0.040 HD
ATOM     55  H   UNL     1     144.563 165.423 187.499  0.00  0.00    +0.074 HD
BRANCH   4  56
ATOM     56  C   UNL     1     142.697 168.383 187.386  0.00  0.00    -0.057 C 
ATOM     57  H   UNL     1     141.814 168.657 186.800  0.00  0.00    +0.023 HD
ATOM     58  H   UNL     1     142.379 168.169 188.411  0.00  0.00    +0.023 HD
ATOM     59  H   UNL     1     143.344 169.268 187.426  0.00  0.00    +0.023 HD
ENDBRANCH   4  56
BRANCH  25  60
ATOM     60  C   UNL     1     151.620 162.982 188.756  0.00  0.00    -0.053 C 
ATOM     61  H   UNL     1     150.736 162.890 189.396  0.00  0.00    +0.024 HD
ATOM     62  H   UNL     1     152.133 163.905 189.037  0.00  0.00    +0.024 HD
ATOM     63  H   UNL     1     152.279 162.140 188.986  0.00  0.00    +0.024 HD
ENDBRANCH  25  60
BRANCH  31  64
ATOM     64  O   UNL     1     148.654 168.830 185.534  0.00  0.00    -0.391 OA
ATOM     65  H   UNL     1     148.251 168.689 184.656  0.00  0.00    +0.210 HD
ENDBRANCH  31  64
BRANCH  24  66
ATOM     66  O   UNL     1     150.940 161.769 185.232  0.00  0.00    -0.373 OA
BRANCH  66  67
ATOM     67  C   UNL     1     151.617 160.888 184.346  0.00  0.00    +0.037 C 
ATOM     68  H   UNL     1     152.637 161.228 184.155  0.00  0.00    +0.052 HD
ATOM     69  H   UNL     1     151.064 160.794 183.406  0.00  0.00    +0.052 HD
ATOM     70  H   UNL     1     151.664 159.901 184.815  0.00  0.00    +0.052 HD
ENDBRANCH  66  67
ENDBRANCH  24  66
BRANCH   5  71
ATOM     71  O   UNL     1     143.192 165.439 185.045  0.00  0.00    -0.379 OA
BRANCH  71  72
ATOM     72  C   UNL     1     143.641 166.082 183.862  0.00  0.00    +0.037 C 
ATOM     73  H   UNL     1     143.402 167.148 183.941  0.00  0.00    +0.052 HD
ATOM     74  H   UNL     1     144.725 165.981 183.749  0.00  0.00    +0.052 HD
ATOM     75  H   UNL     1     143.135 165.692 182.978  0.00  0.00    +0.052 HD
ENDBRANCH  71  72
ENDBRANCH   5  71
ENDBRANCH   1  36
BRANCH   1  76
ATOM     76  C   UNL     1     144.810 166.125 190.376  0.00  0.00    +0.064 C 
ATOM     77  H   UNL     1     145.811 166.443 190.056  0.00  0.00    +0.060 HD
BRANCH  76  78
ATOM     78  C   UNL     1     144.544 166.762 191.771  0.00  0.00    -0.017 C 
ATOM     79  H   UNL     1     143.981 167.691 191.632  0.00  0.00    +0.032 HD
BRANCH  78  80
ATOM     80  C   UNL     1     143.746 165.829 192.697  0.00  0.00    -0.060 C 
ATOM     81  H   UNL     1     142.676 166.050 192.649  0.00  0.00    +0.023 HD
ATOM     82  H   UNL     1     144.066 165.934 193.738  0.00  0.00    +0.023 HD
ATOM     83  H   UNL     1     143.856 164.778 192.419  0.00  0.00    +0.023 HD
ENDBRANCH  78  80
BRANCH  78  84
ATOM     84  C   UNL     1     145.907 167.126 192.414  0.00  0.00    -0.045 C 
ATOM     85  H   UNL     1     145.891 168.194 192.635  0.00  0.00    +0.027 HD
ATOM     86  H   UNL     1     146.003 166.603 193.373  0.00  0.00    +0.027 HD
BRANCH  84  87
ATOM     87  C   UNL     1     147.139 166.823 191.562  0.00  0.00    -0.015 C 
ATOM     88  H   UNL     1     146.865 166.682 190.511  0.00  0.00    +0.030 HD
ATOM     89  H   UNL     1     147.559 165.856 191.874  0.00  0.00    +0.030 HD
BRANCH  87  90
ATOM     90  C   UNL     1     148.251 167.889 191.656  0.00  0.00    +0.109 C 
ATOM     91  H   UNL     1     148.812 167.867 190.715  0.00  0.00    +0.074 HD
BRANCH  90  92
ATOM     92  C   UNL     1     149.263 167.784 192.849  0.00  0.00    +0.031 C 
ATOM     93  H   UNL     1     148.810 168.375 193.657  0.00  0.00    +0.037 HD
BRANCH  92  94
ATOM     94  C   UNL     1     150.587 168.477 192.505  0.00  0.00    -0.056 C 
ATOM     95  H   UNL     1     151.206 168.675 193.381  0.00  0.00    +0.023 HD
ATOM     96  H   UNL     1     151.179 167.879 191.805  0.00  0.00    +0.023 HD
ATOM     97  H   UNL     1     150.406 169.434 192.009  0.00  0.00    +0.023 HD
ENDBRANCH  92  94
BRANCH  92  98
ATOM     98  C   UNL     1     149.427 166.332 193.398  0.00  0.00    +0.115 C 
ATOM     99  H   UNL     1     148.647 165.709 192.950  0.00  0.00    +0.074 HD
BRANCH  98 100
ATOM    100  C   UNL     1     150.798 165.625 193.171  0.00  0.00    +0.013 C 
ATOM    101  H   UNL     1     150.605 164.542 193.164  0.00  0.00    +0.038 HD
BRANCH 100 102
ATOM    102  C   UNL     1     151.789 165.816 194.325  0.00  0.00    -0.056 C 
ATOM    103  H   UNL     1     151.993 164.883 194.859  0.00  0.00    +0.024 HD
ATOM    104  H   UNL     1     152.741 166.210 193.957  0.00  0.00    +0.024 HD
ATOM    105  H   UNL     1     151.396 166.532 195.056  0.00  0.00    +0.024 HD
ENDBRANCH 100 102
BRANCH 100 106
ATOM    106  C   UNL     1     151.427 165.960 191.834  0.00  0.00    -0.064 C 
ATOM    107  C   UNL     1     152.706 165.664 191.563  0.00  0.00    -0.005 C 
ATOM    108  H   UNL     1     150.790 166.455 191.110  0.00  0.00    +0.059 HD
ATOM    109  H   UNL     1     153.299 165.166 192.336  0.00  0.00    +0.078 HD
BRANCH 107 110
ATOM    110  N   UNL     1     153.401 165.900 190.387  0.00  0.00    -0.284 N 
ATOM    111  C   UNL     1     153.151 166.941 189.504  0.00  0.00    +0.206 C 
ATOM    112  O   UNL     1     153.753 167.165 188.456  0.00  0.00    -0.279 OA
ATOM    113  H   UNL     1     152.321 167.593 189.807  0.00  0.00    +0.126 HD
BRANCH 110 114
ATOM    114  C   UNL     1     154.462 164.957 190.043  0.00  0.00    +0.007 C 
ATOM    115  H   UNL     1     155.435 165.449 189.960  0.00  0.00    +0.043 HD
ATOM    116  H   UNL     1     154.528 164.184 190.814  0.00  0.00    +0.043 HD
ATOM    117  H   UNL     1     154.219 164.495 189.082  0.00  0.00    +0.043 HD
ENDBRANCH 110 114
ENDBRANCH 107 110
ENDBRANCH 100 106
ENDBRANCH  98 100
BRANCH  98 118
ATOM    118  O   UNL     1     149.201 166.386 194.834  0.00  0.00    -0.461 OA
BRANCH 118 119
ATOM    119  C   UNL     1     148.057 165.816 195.302  0.00  0.00    +0.304 C 
ATOM    120  O   UNL     1     147.331 165.063 194.672  0.00  0.00    -0.251 OA
BRANCH 119 121
ATOM    121  C   UNL     1     147.814 166.245 196.717  0.00  0.00    +0.033 C 
ATOM    122  H   UNL     1     147.823 167.335 196.778  0.00  0.00    +0.034 HD
ATOM    123  H   UNL     1     148.613 165.856 197.354  0.00  0.00    +0.034 HD
ATOM    124  H   UNL     1     146.860 165.847 197.070  0.00  0.00    +0.034 HD
ENDBRANCH 119 121
ENDBRANCH 118 119
ENDBRANCH  98 118
ENDBRANCH  92  98
ENDBRANCH  90  92
BRANCH  90 125
ATOM    125  O   UNL     1     147.581 169.169 191.805  0.00  0.00    -0.459 OA
BRANCH 125 126
ATOM    126  C   UNL     1     147.768 170.100 190.818  0.00  0.00    +0.339 C 
ATOM    127  O   UNL     1     147.539 169.918 189.629  0.00  0.00    -0.248 OA
BRANCH 126 128
ATOM    128  C   UNL     1     148.261 171.416 191.452  0.00  0.00    +0.178 C 
ATOM    129  H   UNL     1     149.201 171.691 190.952  0.00  0.00    +0.074 HD
BRANCH 128 130
ATOM    130  C   UNL     1     147.226 172.520 191.172  0.00  0.00    +0.084 C 
ATOM    131  H   UNL     1     147.086 172.662 190.095  0.00  0.00    +0.059 HD
ATOM    132  H   UNL     1     147.582 173.463 191.603  0.00  0.00    +0.059 HD
BRANCH 130 133
ATOM    133  O   UNL     1     145.959 172.190 191.755  0.00  0.00    -0.380 OA
BRANCH 133 134
ATOM    134  C   UNL     1     144.915 172.191 190.792  0.00  0.00    +0.037 C 
ATOM    135  H   UNL     1     144.208 173.001 190.997  0.00  0.00    +0.052 HD
ATOM    136  H   UNL     1     145.323 172.292 189.782  0.00  0.00    +0.052 HD
ATOM    137  H   UNL     1     144.382 171.237 190.863  0.00  0.00    +0.052 HD
ENDBRANCH 133 134
ENDBRANCH 130 133
ENDBRANCH 128 130
BRANCH 128 138
ATOM    138  O   UNL     1     148.503 171.413 192.863  0.00  0.00    -0.366 OA
BRANCH 138 139
ATOM    139  C   UNL     1     149.197 172.564 193.319  0.00  0.00    +0.038 C 
ATOM    140  H   UNL     1     150.191 172.630 192.861  0.00  0.00    +0.052 HD
ATOM    141  H   UNL     1     149.281 172.563 194.408  0.00  0.00    +0.052 HD
ATOM    142  H   UNL     1     148.622 173.448 193.024  0.00  0.00    +0.052 HD
ENDBRANCH 138 139
ENDBRANCH 128 138
ENDBRANCH 126 128
ENDBRANCH 125 126
ENDBRANCH  90 125
ENDBRANCH  87  90
ENDBRANCH  84  87
ENDBRANCH  78  84
ENDBRANCH  76  78
BRANCH  76 143
ATOM    143  O   UNL     1     144.794 164.692 190.557  0.00  0.00    -0.379 OA
BRANCH 143 144
ATOM    144  C   UNL     1     145.819 164.015 189.845  0.00  0.00    +0.037 C 
ATOM    145  H   UNL     1     146.785 164.388 190.197  0.00  0.00    +0.052 HD
ATOM    146  H   UNL     1     145.775 162.938 190.031  0.00  0.00    +0.052 HD
ATOM    147  H   UNL     1     145.739 164.221 188.771  0.00  0.00    +0.052 HD
ENDBRANCH 143 144
ENDBRANCH  76 143
ENDBRANCH   1  76
TORSDOF 35
ENDMDL
MODEL 4
REMARK VINA RESULT:      -4.3      2.801      8.719
REMARK  Name = Mycalolide B_conf1
REMARK  35 active torsions:
REMARK  status: ('A' for Active; 'I' for Inactive)
REMARK    1  A    between atoms: C_1  and  C_2
REMARK    2  A    between atoms: C_3  and  O_72
REMARK    3  A    between atoms: C_22  and  O_70
REMARK    4  A    between atoms: C_23  and  C_69
REMARK    5  A    between atoms: C_29  and  O_68
REMARK    6  A    between atoms: C_34  and  C_35
REMARK    7  A    between atoms: C_35  and  C_36
REMARK    8  A    between atoms: C_36  and  C_37
REMARK    9  A    between atoms: C_36  and  O_66
REMARK   10  A    between atoms: C_37  and  C_38
REMARK   11  A    between atoms: C_37  and  C_39
REMARK   12  A    between atoms: C_39  and  C_40
REMARK   13  A    between atoms: C_40  and  C_41
REMARK   14  A    between atoms: C_41  and  C_42
REMARK   15  A    between atoms: C_41  and  O_57
REMARK   16  A    between atoms: C_42  and  C_43
REMARK   17  A    between atoms: C_42  and  C_44
REMARK   18  A    between atoms: C_44  and  C_45
REMARK   19  A    between atoms: C_44  and  O_53
REMARK   20  A    between atoms: C_45  and  C_46
REMARK   21  A    between atoms: C_45  and  C_47
REMARK   22  A    between atoms: C_48  and  N_49
REMARK   23  A    between atoms: N_49  and  C_50
REMARK   24  A    between atoms: O_53  and  C_54
REMARK   25  A    between atoms: C_54  and  C_56
REMARK   26  A    between atoms: O_57  and  C_58
REMARK   27  A    between atoms: C_58  and  C_60
REMARK   28  A    between atoms: C_60  and  C_61
REMARK   29  A    between atoms: C_60  and  O_64
REMARK   30  A    between atoms: C_61  and  O_62
REMARK   31  A    between atoms: O_62  and  C_63
REMARK   32  A    between atoms: O_64  and  C_65
REMARK   33  A    between atoms: O_66  and  C_67
REMARK   34  A    between atoms: O_70  and  C_71
REMARK   35  A    between atoms: O_72  and  C_73
REMARK                            x       y       z     vdW  Elec       q    Type
REMARK                         _______ _______ _______ _____ _____    ______ ____
ROOT
ATOM      1  C   UNL     1     146.538 165.242 184.673  0.00  0.00    +0.011 C 
ATOM      2  H   UNL     1     146.663 165.246 183.583  0.00  0.00    +0.033 HD
ATOM      3  H   UNL     1     145.580 164.740 184.845  0.00  0.00    +0.033 HD
ENDROOT
BRANCH   1  36
ATOM      4  C   UNL     1     148.115 163.186 184.513  0.00  0.00    +0.020 C 
ATOM      5  C   UNL     1     147.465 161.830 184.925  0.00  0.00    +0.068 C 
ATOM      6  C   UNL     1     145.913 161.748 184.932  0.00  0.00    -0.008 C 
ATOM      7  C   UNL     1     145.241 162.398 186.110  0.00  0.00    -0.077 C 
ATOM      8  C   UNL     1     143.959 162.794 186.162  0.00  0.00    -0.003 C 
ATOM      9  C   UNL     1     143.463 163.428 187.337  0.00  0.00    +0.220 A 
ATOM     10  N   UNL     1     144.207 163.960 188.295  0.00  0.00    -0.205 NA
ATOM     11  C   UNL     1     143.326 164.445 189.226  0.00  0.00    +0.164 A 
ATOM     12  C   UNL     1     142.046 164.220 188.801  0.00  0.00    +0.125 A 
ATOM     13  O   UNL     1     142.111 163.593 187.592  0.00  0.00    -0.443 OA
ATOM     14  C   UNL     1     143.757 165.137 190.554  0.00  0.00    +0.250 A 
ATOM     15  N   UNL     1     145.022 165.344 190.866  0.00  0.00    -0.203 NA
ATOM     16  C   UNL     1     144.979 165.950 192.096  0.00  0.00    +0.164 A 
ATOM     17  C   UNL     1     143.677 166.093 192.496  0.00  0.00    +0.125 A 
ATOM     18  O   UNL     1     142.877 165.584 191.515  0.00  0.00    -0.442 OA
ATOM     19  C   UNL     1     146.233 166.400 192.908  0.00  0.00    +0.249 A 
ATOM     20  N   UNL     1     147.472 166.255 192.465  0.00  0.00    -0.210 NA
ATOM     21  C   UNL     1     148.268 166.799 193.449  0.00  0.00    +0.109 A 
ATOM     22  C   UNL     1     147.465 167.249 194.473  0.00  0.00    +0.118 A 
ATOM     23  O   UNL     1     146.167 166.999 194.146  0.00  0.00    -0.442 OA
ATOM     24  C   UNL     1     149.756 166.894 193.286  0.00  0.00    +0.113 C 
ATOM     25  C   UNL     1     150.121 167.560 191.942  0.00  0.00    +0.051 C 
ATOM     26  C   UNL     1     151.635 167.697 191.851  0.00  0.00    +0.161 C 
ATOM     27  O   UNL     1     152.308 168.127 192.787  0.00  0.00    -0.292 OA
ATOM     28  C   UNL     1     152.340 167.362 190.579  0.00  0.00    -0.023 C 
ATOM     29  C   UNL     1     151.770 167.372 189.362  0.00  0.00    -0.078 C 
ATOM     30  C   UNL     1     152.521 167.070 188.093  0.00  0.00    -0.008 C 
ATOM     31  C   UNL     1     151.923 165.900 187.289  0.00  0.00    +0.069 C 
ATOM     32  C   UNL     1     150.637 166.290 186.549  0.00  0.00    +0.071 C 
ATOM     33  C   UNL     1     149.675 165.130 186.459  0.00  0.00    +0.310 C 
ATOM     34  O   UNL     1     149.636 164.189 187.237  0.00  0.00    -0.251 OA
ATOM     35  O   UNL     1     148.803 165.339 185.432  0.00  0.00    -0.461 OA
ATOM     36  C   UNL     1     147.670 164.433 185.337  0.00  0.00    +0.110 C 
ATOM     37  H   UNL     1     149.193 163.076 184.689  0.00  0.00    +0.036 HD
ATOM     38  H   UNL     1     147.795 161.075 184.199  0.00  0.00    +0.060 HD
ATOM     39  H   UNL     1     145.507 162.127 183.989  0.00  0.00    +0.033 HD
ATOM     40  H   UNL     1     145.654 160.681 184.988  0.00  0.00    +0.033 HD
ATOM     41  H   UNL     1     145.862 162.518 187.002  0.00  0.00    +0.057 HD
ATOM     42  H   UNL     1     143.279 162.645 185.331  0.00  0.00    +0.067 HD
ATOM     43  H   UNL     1     141.060 164.425 189.190  0.00  0.00    +0.105 HD
ATOM     44  H   UNL     1     143.186 166.498 193.365  0.00  0.00    +0.105 HD
ATOM     45  H   UNL     1     147.634 167.743 195.419  0.00  0.00    +0.105 HD
ATOM     46  H   UNL     1     150.179 167.482 194.113  0.00  0.00    +0.067 HD
ATOM     47  H   UNL     1     149.772 166.915 191.128  0.00  0.00    +0.041 HD
ATOM     48  H   UNL     1     153.399 167.154 190.706  0.00  0.00    +0.065 HD
ATOM     49  H   UNL     1     150.720 167.630 189.246  0.00  0.00    +0.057 HD
ATOM     50  H   UNL     1     152.544 167.972 187.467  0.00  0.00    +0.033 HD
ATOM     51  H   UNL     1     153.572 166.848 188.320  0.00  0.00    +0.033 HD
ATOM     52  H   UNL     1     151.772 165.044 187.956  0.00  0.00    +0.060 HD
ATOM     53  H   UNL     1     150.874 166.632 185.536  0.00  0.00    +0.040 HD
ATOM     54  H   UNL     1     150.094 167.087 187.068  0.00  0.00    +0.040 HD
ATOM     55  H   UNL     1     147.370 164.150 186.349  0.00  0.00    +0.074 HD
BRANCH   4  56
ATOM     56  C   UNL     1     148.012 163.388 182.993  0.00  0.00    -0.057 C 
ATOM     57  H   UNL     1     148.987 163.342 182.497  0.00  0.00    +0.023 HD
ATOM     58  H   UNL     1     147.358 162.635 182.541  0.00  0.00    +0.023 HD
ATOM     59  H   UNL     1     147.579 164.370 182.765  0.00  0.00    +0.023 HD
ENDBRANCH   4  56
BRANCH  25  60
ATOM     60  C   UNL     1     149.521 168.961 191.787  0.00  0.00    -0.053 C 
ATOM     61  H   UNL     1     149.303 169.413 192.761  0.00  0.00    +0.024 HD
ATOM     62  H   UNL     1     148.584 168.924 191.226  0.00  0.00    +0.024 HD
ATOM     63  H   UNL     1     150.208 169.632 191.263  0.00  0.00    +0.024 HD
ENDBRANCH  25  60
BRANCH  31  64
ATOM     64  O   UNL     1     152.882 165.500 186.300  0.00  0.00    -0.391 OA
ATOM     65  H   UNL     1     152.651 165.953 185.467  0.00  0.00    +0.210 HD
ENDBRANCH  31  64
BRANCH  24  66
ATOM     66  O   UNL     1     150.363 165.586 193.288  0.00  0.00    -0.373 OA
BRANCH  66  67
ATOM     67  C   UNL     1     150.605 165.086 194.595  0.00  0.00    +0.037 C 
ATOM     68  H   UNL     1     149.866 165.464 195.305  0.00  0.00    +0.052 HD
ATOM     69  H   UNL     1     151.617 165.348 194.922  0.00  0.00    +0.052 HD
ATOM     70  H   UNL     1     150.527 163.996 194.564  0.00  0.00    +0.052 HD
ENDBRANCH  66  67
ENDBRANCH  24  66
BRANCH   5  71
ATOM     71  O   UNL     1     147.911 161.395 186.220  0.00  0.00    -0.379 OA
BRANCH  71  72
ATOM     72  C   UNL     1     148.132 159.998 186.337  0.00  0.00    +0.037 C 
ATOM     73  H   UNL     1     147.451 159.607 187.100  0.00  0.00    +0.052 HD
ATOM     74  H   UNL     1     147.918 159.488 185.392  0.00  0.00    +0.052 HD
ATOM     75  H   UNL     1     149.152 159.779 186.657  0.00  0.00    +0.052 HD
ENDBRANCH  71  72
ENDBRANCH   5  71
ENDBRANCH   1  36
BRANCH   1  76
ATOM     76  C   UNL     1     146.375 166.703 185.143  0.00  0.00    +0.064 C 
ATOM     77  H   UNL     1     146.631 166.759 186.209  0.00  0.00    +0.060 HD
BRANCH  76  78
ATOM     78  C   UNL     1     147.218 167.784 184.405  0.00  0.00    -0.017 C 
ATOM     79  H   UNL     1     148.142 167.323 184.043  0.00  0.00    +0.032 HD
BRANCH  78  80
ATOM     80  C   UNL     1     146.466 168.400 183.214  0.00  0.00    -0.060 C 
ATOM     81  H   UNL     1     145.784 169.188 183.546  0.00  0.00    +0.023 HD
ATOM     82  H   UNL     1     145.878 167.646 182.682  0.00  0.00    +0.023 HD
ATOM     83  H   UNL     1     147.144 168.864 182.493  0.00  0.00    +0.023 HD
ENDBRANCH  78  80
BRANCH  78  84
ATOM     84  C   UNL     1     147.609 168.885 185.425  0.00  0.00    -0.045 C 
ATOM     85  H   UNL     1     147.269 168.557 186.408  0.00  0.00    +0.027 HD
ATOM     86  H   UNL     1     148.702 168.960 185.472  0.00  0.00    +0.027 HD
BRANCH  84  87
ATOM     87  C   UNL     1     147.032 170.274 185.148  0.00  0.00    -0.015 C 
ATOM     88  H   UNL     1     146.427 170.273 184.235  0.00  0.00    +0.030 HD
ATOM     89  H   UNL     1     147.858 170.967 184.936  0.00  0.00    +0.030 HD
BRANCH  87  90
ATOM     90  C   UNL     1     146.196 170.853 186.308  0.00  0.00    +0.109 C 
ATOM     91  H   UNL     1     146.869 170.996 187.162  0.00  0.00    +0.074 HD
BRANCH  90  92
ATOM     92  C   UNL     1     144.943 170.040 186.784  0.00  0.00    +0.031 C 
ATOM     93  H   UNL     1     144.861 169.205 186.075  0.00  0.00    +0.037 HD
BRANCH  92  94
ATOM     94  C   UNL     1     143.661 170.865 186.620  0.00  0.00    -0.056 C 
ATOM     95  H   UNL     1     142.753 170.274 186.747  0.00  0.00    +0.023 HD
ATOM     96  H   UNL     1     143.625 171.692 187.336  0.00  0.00    +0.023 HD
ATOM     97  H   UNL     1     143.618 171.321 185.627  0.00  0.00    +0.023 HD
ENDBRANCH  92  94
BRANCH  92  98
ATOM     98  C   UNL     1     145.116 169.406 188.200  0.00  0.00    +0.115 C 
ATOM     99  H   UNL     1     144.857 168.345 188.132  0.00  0.00    +0.074 HD
BRANCH  98 100
ATOM    100  C   UNL     1     146.518 169.517 188.875  0.00  0.00    +0.013 C 
ATOM    101  H   UNL     1     147.210 169.914 188.118  0.00  0.00    +0.038 HD
BRANCH 100 102
ATOM    102  C   UNL     1     147.126 168.164 189.259  0.00  0.00    -0.056 C 
ATOM    103  H   UNL     1     147.910 168.259 190.017  0.00  0.00    +0.024 HD
ATOM    104  H   UNL     1     146.358 167.491 189.650  0.00  0.00    +0.024 HD
ATOM    105  H   UNL     1     147.575 167.680 188.384  0.00  0.00    +0.024 HD
ENDBRANCH 100 102
BRANCH 100 106
ATOM    106  C   UNL     1     146.544 170.491 190.035  0.00  0.00    -0.064 C 
ATOM    107  C   UNL     1     147.471 171.455 190.125  0.00  0.00    -0.005 C 
ATOM    108  H   UNL     1     145.776 170.366 190.790  0.00  0.00    +0.059 HD
ATOM    109  H   UNL     1     148.221 171.530 189.333  0.00  0.00    +0.078 HD
BRANCH 107 110
ATOM    110  N   UNL     1     147.604 172.415 191.118  0.00  0.00    -0.284 N 
ATOM    111  C   UNL     1     146.657 172.696 192.092  0.00  0.00    +0.206 C 
ATOM    112  O   UNL     1     146.755 173.543 192.977  0.00  0.00    -0.279 OA
ATOM    113  H   UNL     1     145.746 172.087 192.018  0.00  0.00    +0.126 HD
BRANCH 110 114
ATOM    114  C   UNL     1     148.831 173.207 191.113  0.00  0.00    +0.007 C 
ATOM    115  H   UNL     1     149.245 173.324 192.118  0.00  0.00    +0.043 HD
ATOM    116  H   UNL     1     149.580 172.717 190.485  0.00  0.00    +0.043 HD
ATOM    117  H   UNL     1     148.605 174.197 190.708  0.00  0.00    +0.043 HD
ENDBRANCH 110 114
ENDBRANCH 107 110
ENDBRANCH 100 106
ENDBRANCH  98 100
BRANCH  98 118
ATOM    118  O   UNL     1     144.159 170.056 189.083  0.00  0.00    -0.461 OA
BRANCH 118 119
ATOM    119  C   UNL     1     143.450 169.254 189.924  0.00  0.00    +0.304 C 
ATOM    120  O   UNL     1     143.435 169.341 191.141  0.00  0.00    -0.251 OA
BRANCH 119 121
ATOM    121  C   UNL     1     142.680 168.241 189.133  0.00  0.00    +0.033 C 
ATOM    122  H   UNL     1     143.053 167.239 189.354  0.00  0.00    +0.034 HD
ATOM    123  H   UNL     1     142.819 168.435 188.065  0.00  0.00    +0.034 HD
ATOM    124  H   UNL     1     141.615 168.316 189.366  0.00  0.00    +0.034 HD
ENDBRANCH 119 121
ENDBRANCH 118 119
ENDBRANCH  98 118
ENDBRANCH  92  98
ENDBRANCH  90  92
BRANCH  90 125
ATOM    125  O   UNL     1     145.695 172.137 185.852  0.00  0.00    -0.459 OA
BRANCH 125 126
ATOM    126  C   UNL     1     146.133 173.258 186.507  0.00  0.00    +0.339 C 
ATOM    127  O   UNL     1     146.512 173.287 187.671  0.00  0.00    -0.248 OA
BRANCH 126 128
ATOM    128  C   UNL     1     146.117 174.452 185.531  0.00  0.00    +0.178 C 
ATOM    129  H   UNL     1     147.128 174.543 185.107  0.00  0.00    +0.074 HD
BRANCH 128 130
ATOM    130  C   UNL     1     145.139 174.143 184.384  0.00  0.00    +0.084 C 
ATOM    131  H   UNL     1     144.120 174.449 184.645  0.00  0.00    +0.059 HD
ATOM    132  H   UNL     1     145.139 173.064 184.192  0.00  0.00    +0.059 HD
BRANCH 130 133
ATOM    133  O   UNL     1     145.527 174.828 183.186  0.00  0.00    -0.380 OA
BRANCH 133 134
ATOM    134  C   UNL     1     146.902 174.637 182.887  0.00  0.00    +0.037 C 
ATOM    135  H   UNL     1     147.214 173.623 183.157  0.00  0.00    +0.052 HD
ATOM    136  H   UNL     1     147.095 174.820 181.825  0.00  0.00    +0.052 HD
ATOM    137  H   UNL     1     147.484 175.350 183.479  0.00  0.00    +0.052 HD
ENDBRANCH 133 134
ENDBRANCH 130 133
ENDBRANCH 128 130
BRANCH 128 138
ATOM    138  O   UNL     1     145.752 175.728 186.064  0.00  0.00    -0.366 OA
BRANCH 138 139
ATOM    139  C   UNL     1     144.379 175.825 186.409  0.00  0.00    +0.038 C 
ATOM    140  H   UNL     1     144.182 176.736 186.984  0.00  0.00    +0.052 HD
ATOM    141  H   UNL     1     144.055 174.944 186.969  0.00  0.00    +0.052 HD
ATOM    142  H   UNL     1     143.798 175.870 185.483  0.00  0.00    +0.052 HD
ENDBRANCH 138 139
ENDBRANCH 128 138
ENDBRANCH 126 128
ENDBRANCH 125 126
ENDBRANCH  90 125
ENDBRANCH  87  90
ENDBRANCH  84  87
ENDBRANCH  78  84
ENDBRANCH  76  78
BRANCH  76 143
ATOM    143  O   UNL     1     144.987 167.057 184.961  0.00  0.00    -0.379 OA
BRANCH 143 144
ATOM    144  C   UNL     1     144.145 166.634 186.025  0.00  0.00    +0.037 C 
ATOM    145  H   UNL     1     143.215 166.252 185.595  0.00  0.00    +0.052 HD
ATOM    146  H   UNL     1     144.618 165.831 186.598  0.00  0.00    +0.052 HD
ATOM    147  H   UNL     1     143.903 167.479 186.679  0.00  0.00    +0.052 HD
ENDBRANCH 143 144
ENDBRANCH  76 143
ENDBRANCH   1  76
TORSDOF 35
ENDMDL
MODEL 5
REMARK VINA RESULT:      -4.3      3.798      9.865
REMARK  Name = Mycalolide B_conf1
REMARK  35 active torsions:
REMARK  status: ('A' for Active; 'I' for Inactive)
REMARK    1  A    between atoms: C_1  and  C_2
REMARK    2  A    between atoms: C_3  and  O_72
REMARK    3  A    between atoms: C_22  and  O_70
REMARK    4  A    between atoms: C_23  and  C_69
REMARK    5  A    between atoms: C_29  and  O_68
REMARK    6  A    between atoms: C_34  and  C_35
REMARK    7  A    between atoms: C_35  and  C_36
REMARK    8  A    between atoms: C_36  and  C_37
REMARK    9  A    between atoms: C_36  and  O_66
REMARK   10  A    between atoms: C_37  and  C_38
REMARK   11  A    between atoms: C_37  and  C_39
REMARK   12  A    between atoms: C_39  and  C_40
REMARK   13  A    between atoms: C_40  and  C_41
REMARK   14  A    between atoms: C_41  and  C_42
REMARK   15  A    between atoms: C_41  and  O_57
REMARK   16  A    between atoms: C_42  and  C_43
REMARK   17  A    between atoms: C_42  and  C_44
REMARK   18  A    between atoms: C_44  and  C_45
REMARK   19  A    between atoms: C_44  and  O_53
REMARK   20  A    between atoms: C_45  and  C_46
REMARK   21  A    between atoms: C_45  and  C_47
REMARK   22  A    between atoms: C_48  and  N_49
REMARK   23  A    between atoms: N_49  and  C_50
REMARK   24  A    between atoms: O_53  and  C_54
REMARK   25  A    between atoms: C_54  and  C_56
REMARK   26  A    between atoms: O_57  and  C_58
REMARK   27  A    between atoms: C_58  and  C_60
REMARK   28  A    between atoms: C_60  and  C_61
REMARK   29  A    between atoms: C_60  and  O_64
REMARK   30  A    between atoms: C_61  and  O_62
REMARK   31  A    between atoms: O_62  and  C_63
REMARK   32  A    between atoms: O_64  and  C_65
REMARK   33  A    between atoms: O_66  and  C_67
REMARK   34  A    between atoms: O_70  and  C_71
REMARK   35  A    between atoms: O_72  and  C_73
REMARK                            x       y       z     vdW  Elec       q    Type
REMARK                         _______ _______ _______ _____ _____    ______ ____
ROOT
ATOM      1  C   UNL     1     146.810 166.508 186.576  0.00  0.00    +0.011 C 
ATOM      2  H   UNL     1     147.233 165.529 186.319  0.00  0.00    +0.033 HD
ATOM      3  H   UNL     1     147.031 167.146 185.714  0.00  0.00    +0.033 HD
ENDROOT
BRANCH   1  36
ATOM      4  C   UNL     1     144.678 165.075 186.194  0.00  0.00    +0.020 C 
ATOM      5  C   UNL     1     144.086 165.156 184.755  0.00  0.00    +0.068 C 
ATOM      6  C   UNL     1     145.019 165.663 183.619  0.00  0.00    -0.008 C 
ATOM      7  C   UNL     1     145.238 167.150 183.583  0.00  0.00    -0.077 C 
ATOM      8  C   UNL     1     146.259 167.778 182.978  0.00  0.00    -0.003 C 
ATOM      9  C   UNL     1     146.359 169.197 183.054  0.00  0.00    +0.220 A 
ATOM     10  N   UNL     1     145.720 169.967 183.922  0.00  0.00    -0.205 NA
ATOM     11  C   UNL     1     146.098 171.251 183.631  0.00  0.00    +0.164 A 
ATOM     12  C   UNL     1     146.990 171.239 182.594  0.00  0.00    +0.125 A 
ATOM     13  O   UNL     1     147.185 169.941 182.227  0.00  0.00    -0.443 OA
ATOM     14  C   UNL     1     145.568 172.507 184.385  0.00  0.00    +0.250 A 
ATOM     15  N   UNL     1     144.730 172.421 185.401  0.00  0.00    -0.203 NA
ATOM     16  C   UNL     1     144.499 173.722 185.769  0.00  0.00    +0.164 A 
ATOM     17  C   UNL     1     145.209 174.566 184.957  0.00  0.00    +0.125 A 
ATOM     18  O   UNL     1     145.908 173.804 184.066  0.00  0.00    -0.442 OA
ATOM     19  C   UNL     1     143.562 174.162 186.936  0.00  0.00    +0.249 A 
ATOM     20  N   UNL     1     142.912 173.302 187.705  0.00  0.00    -0.210 NA
ATOM     21  C   UNL     1     142.235 174.081 188.618  0.00  0.00    +0.109 A 
ATOM     22  C   UNL     1     142.496 175.406 188.352  0.00  0.00    +0.118 A 
ATOM     23  O   UNL     1     143.336 175.474 187.283  0.00  0.00    -0.442 OA
ATOM     24  C   UNL     1     141.428 173.466 189.723  0.00  0.00    +0.113 C 
ATOM     25  C   UNL     1     142.262 172.423 190.498  0.00  0.00    +0.051 C 
ATOM     26  C   UNL     1     141.427 171.878 191.649  0.00  0.00    +0.161 C 
ATOM     27  O   UNL     1     140.785 172.615 192.396  0.00  0.00    -0.292 OA
ATOM     28  C   UNL     1     141.420 170.413 191.938  0.00  0.00    -0.023 C 
ATOM     29  C   UNL     1     142.397 169.559 191.587  0.00  0.00    -0.078 C 
ATOM     30  C   UNL     1     142.378 168.093 191.932  0.00  0.00    -0.008 C 
ATOM     31  C   UNL     1     142.471 167.173 190.700  0.00  0.00    +0.069 C 
ATOM     32  C   UNL     1     143.887 167.116 190.113  0.00  0.00    +0.071 C 
ATOM     33  C   UNL     1     143.859 166.940 188.614  0.00  0.00    +0.310 C 
ATOM     34  O   UNL     1     142.940 167.280 187.884  0.00  0.00    -0.251 OA
ATOM     35  O   UNL     1     145.049 166.426 188.192  0.00  0.00    -0.461 OA
ATOM     36  C   UNL     1     145.283 166.398 186.757  0.00  0.00    +0.110 C 
ATOM     37  H   UNL     1     143.841 164.820 186.857  0.00  0.00    +0.036 HD
ATOM     38  H   UNL     1     143.795 164.137 184.463  0.00  0.00    +0.060 HD
ATOM     39  H   UNL     1     145.972 165.124 183.640  0.00  0.00    +0.033 HD
ATOM     40  H   UNL     1     144.527 165.407 182.670  0.00  0.00    +0.033 HD
ATOM     41  H   UNL     1     144.468 167.753 184.073  0.00  0.00    +0.057 HD
ATOM     42  H   UNL     1     147.018 167.237 182.426  0.00  0.00    +0.067 HD
ATOM     43  H   UNL     1     147.542 171.988 182.046  0.00  0.00    +0.105 HD
ATOM     44  H   UNL     1     145.324 175.634 184.880  0.00  0.00    +0.105 HD
ATOM     45  H   UNL     1     142.207 176.348 188.795  0.00  0.00    +0.105 HD
ATOM     46  H   UNL     1     141.092 174.252 190.413  0.00  0.00    +0.067 HD
ATOM     47  H   UNL     1     142.511 171.601 189.817  0.00  0.00    +0.041 HD
ATOM     48  H   UNL     1     140.562 170.084 192.518  0.00  0.00    +0.065 HD
ATOM     49  H   UNL     1     143.273 169.912 191.049  0.00  0.00    +0.057 HD
ATOM     50  H   UNL     1     143.207 167.875 192.617  0.00  0.00    +0.033 HD
ATOM     51  H   UNL     1     141.466 167.849 192.493  0.00  0.00    +0.033 HD
ATOM     52  H   UNL     1     141.728 167.487 189.958  0.00  0.00    +0.060 HD
ATOM     53  H   UNL     1     144.444 166.283 190.555  0.00  0.00    +0.040 HD
ATOM     54  H   UNL     1     144.441 168.043 190.294  0.00  0.00    +0.040 HD
ATOM     55  H   UNL     1     144.799 167.273 186.314  0.00  0.00    +0.074 HD
BRANCH   4  56
ATOM     56  C   UNL     1     145.623 163.870 186.316  0.00  0.00    -0.057 C 
ATOM     57  H   UNL     1     146.236 163.908 187.222  0.00  0.00    +0.023 HD
ATOM     58  H   UNL     1     145.062 162.930 186.317  0.00  0.00    +0.023 HD
ATOM     59  H   UNL     1     146.311 163.834 185.462  0.00  0.00    +0.023 HD
ENDBRANCH   4  56
BRANCH  25  60
ATOM     60  C   UNL     1     143.545 173.008 191.096  0.00  0.00    -0.053 C 
ATOM     61  H   UNL     1     144.430 172.689 190.535  0.00  0.00    +0.024 HD
ATOM     62  H   UNL     1     143.677 172.682 192.131  0.00  0.00    +0.024 HD
ATOM     63  H   UNL     1     143.527 174.102 191.082  0.00  0.00    +0.024 HD
ENDBRANCH  25  60
BRANCH  31  64
ATOM     64  O   UNL     1     142.122 165.843 191.108  0.00  0.00    -0.391 OA
ATOM     65  H   UNL     1     142.953 165.353 191.256  0.00  0.00    +0.210 HD
ENDBRANCH  31  64
BRANCH  24  66
ATOM     66  O   UNL     1     140.272 172.780 189.202  0.00  0.00    -0.373 OA
BRANCH  66  67
ATOM     67  C   UNL     1     139.113 173.599 189.152  0.00  0.00    +0.037 C 
ATOM     68  H   UNL     1     138.943 173.981 188.143  0.00  0.00    +0.052 HD
ATOM     69  H   UNL     1     139.200 174.427 189.863  0.00  0.00    +0.052 HD
ATOM     70  H   UNL     1     138.251 172.991 189.441  0.00  0.00    +0.052 HD
ENDBRANCH  66  67
ENDBRANCH  24  66
BRANCH   5  71
ATOM     71  O   UNL     1     142.899 165.964 184.709  0.00  0.00    -0.379 OA
BRANCH  71  72
ATOM     72  C   UNL     1     141.723 165.325 185.183  0.00  0.00    +0.037 C 
ATOM     73  H   UNL     1     141.353 164.663 184.394  0.00  0.00    +0.052 HD
ATOM     74  H   UNL     1     141.938 164.719 186.069  0.00  0.00    +0.052 HD
ATOM     75  H   UNL     1     140.937 166.048 185.407  0.00  0.00    +0.052 HD
ENDBRANCH  71  72
ENDBRANCH   5  71
ENDBRANCH   1  36
BRANCH   1  76
ATOM     76  C   UNL     1     147.601 167.074 187.774  0.00  0.00    +0.064 C 
ATOM     77  H   UNL     1     146.894 167.534 188.476  0.00  0.00    +0.060 HD
BRANCH  76  78
ATOM     78  C   UNL     1     148.476 166.073 188.584  0.00  0.00    -0.017 C 
ATOM     79  H   UNL     1     147.895 165.706 189.435  0.00  0.00    +0.032 HD
BRANCH  78  80
ATOM     80  C   UNL     1     148.931 164.874 187.735  0.00  0.00    -0.060 C 
ATOM     81  H   UNL     1     149.529 164.178 188.329  0.00  0.00    +0.023 HD
ATOM     82  H   UNL     1     149.537 165.197 186.883  0.00  0.00    +0.023 HD
ATOM     83  H   UNL     1     148.086 164.300 187.345  0.00  0.00    +0.023 HD
ENDBRANCH  78  80
BRANCH  78  84
ATOM     84  C   UNL     1     149.705 166.835 189.145  0.00  0.00    -0.045 C 
ATOM     85  H   UNL     1     150.123 167.427 188.331  0.00  0.00    +0.027 HD
ATOM     86  H   UNL     1     149.370 167.540 189.915  0.00  0.00    +0.027 HD
BRANCH  84  87
ATOM     87  C   UNL     1     150.813 165.957 189.728  0.00  0.00    -0.015 C 
ATOM     88  H   UNL     1     151.632 165.830 189.012  0.00  0.00    +0.030 HD
ATOM     89  H   UNL     1     150.419 164.943 189.885  0.00  0.00    +0.030 HD
BRANCH  87  90
ATOM     90  C   UNL     1     151.385 166.469 191.066  0.00  0.00    +0.109 C 
ATOM     91  H   UNL     1     151.319 165.649 191.791  0.00  0.00    +0.074 HD
BRANCH  90  92
ATOM     92  C   UNL     1     150.738 167.751 191.695  0.00  0.00    +0.031 C 
ATOM     93  H   UNL     1     150.158 168.204 190.880  0.00  0.00    +0.037 HD
BRANCH  92  94
ATOM     94  C   UNL     1     151.813 168.776 192.075  0.00  0.00    -0.056 C 
ATOM     95  H   UNL     1     151.695 169.730 191.559  0.00  0.00    +0.023 HD
ATOM     96  H   UNL     1     151.811 168.975 193.151  0.00  0.00    +0.023 HD
ATOM     97  H   UNL     1     152.810 168.398 191.838  0.00  0.00    +0.023 HD
ENDBRANCH  92  94
BRANCH  92  98
ATOM     98  C   UNL     1     149.726 167.435 192.841  0.00  0.00    +0.115 C 
ATOM     99  H   UNL     1     149.997 168.041 193.712  0.00  0.00    +0.074 HD
BRANCH  98 100
ATOM    100  C   UNL     1     148.211 167.662 192.549  0.00  0.00    +0.013 C 
ATOM    101  H   UNL     1     147.735 167.932 193.504  0.00  0.00    +0.038 HD
BRANCH 100 102
ATOM    102  C   UNL     1     147.470 166.392 192.115  0.00  0.00    -0.056 C 
ATOM    103  H   UNL     1     147.969 165.480 192.456  0.00  0.00    +0.024 HD
ATOM    104  H   UNL     1     146.449 166.386 192.507  0.00  0.00    +0.024 HD
ATOM    105  H   UNL     1     147.404 166.339 191.022  0.00  0.00    +0.024 HD
ENDBRANCH 100 102
BRANCH 100 106
ATOM    106  C   UNL     1     147.953 168.811 191.597  0.00  0.00    -0.064 C 
ATOM    107  C   UNL     1     148.242 170.078 191.928  0.00  0.00    -0.005 C 
ATOM    108  H   UNL     1     147.522 168.558 190.636  0.00  0.00    +0.059 HD
ATOM    109  H   UNL     1     148.675 170.272 192.914  0.00  0.00    +0.078 HD
BRANCH 107 110
ATOM    110  N   UNL     1     148.071 171.217 191.156  0.00  0.00    -0.284 N 
ATOM    111  C   UNL     1     148.939 172.300 191.122  0.00  0.00    +0.206 C 
ATOM    112  O   UNL     1     148.804 173.318 190.447  0.00  0.00    -0.279 OA
ATOM    113  H   UNL     1     149.807 172.197 191.786  0.00  0.00    +0.126 HD
BRANCH 110 114
ATOM    114  C   UNL     1     146.865 171.286 190.335  0.00  0.00    +0.007 C 
ATOM    115  H   UNL     1     146.365 172.254 190.424  0.00  0.00    +0.043 HD
ATOM    116  H   UNL     1     147.128 171.126 189.286  0.00  0.00    +0.043 HD
ATOM    117  H   UNL     1     146.176 170.503 190.662  0.00  0.00    +0.043 HD
ENDBRANCH 110 114
ENDBRANCH 107 110
ENDBRANCH 100 106
ENDBRANCH  98 100
BRANCH  98 118
ATOM    118  O   UNL     1     149.893 166.032 193.190  0.00  0.00    -0.461 OA
BRANCH 118 119
ATOM    119  C   UNL     1     150.494 165.759 194.380  0.00  0.00    +0.304 C 
ATOM    120  O   UNL     1     151.679 165.509 194.536  0.00  0.00    -0.251 OA
BRANCH 119 121
ATOM    121  C   UNL     1     149.484 165.814 195.486  0.00  0.00    +0.033 C 
ATOM    122  H   UNL     1     149.858 165.267 196.354  0.00  0.00    +0.034 HD
ATOM    123  H   UNL     1     148.557 165.341 195.151  0.00  0.00    +0.034 HD
ATOM    124  H   UNL     1     149.272 166.854 195.747  0.00  0.00    +0.034 HD
ENDBRANCH 119 121
ENDBRANCH 118 119
ENDBRANCH  98 118
ENDBRANCH  92  98
ENDBRANCH  90  92
BRANCH  90 125
ATOM    125  O   UNL     1     152.777 166.799 190.818  0.00  0.00    -0.459 OA
BRANCH 125 126
ATOM    126  C   UNL     1     153.638 165.765 190.562  0.00  0.00    +0.339 C 
ATOM    127  O   UNL     1     153.610 164.674 191.118  0.00  0.00    -0.248 OA
BRANCH 126 128
ATOM    128  C   UNL     1     154.605 166.180 189.436  0.00  0.00    +0.178 C 
ATOM    129  H   UNL     1     155.553 166.478 189.908  0.00  0.00    +0.074 HD
BRANCH 128 130
ATOM    130  C   UNL     1     154.878 164.959 188.540  0.00  0.00    +0.084 C 
ATOM    131  H   UNL     1     154.442 165.098 187.544  0.00  0.00    +0.059 HD
ATOM    132  H   UNL     1     154.425 164.071 188.996  0.00  0.00    +0.059 HD
BRANCH 130 133
ATOM    133  O   UNL     1     156.287 164.739 188.393  0.00  0.00    -0.380 OA
BRANCH 133 134
ATOM    134  C   UNL     1     156.930 164.560 189.646  0.00  0.00    +0.037 C 
ATOM    135  H   UNL     1     156.464 163.738 190.199  0.00  0.00    +0.052 HD
ATOM    136  H   UNL     1     157.998 164.365 189.507  0.00  0.00    +0.052 HD
ATOM    137  H   UNL     1     156.813 165.481 190.226  0.00  0.00    +0.052 HD
ENDBRANCH 133 134
ENDBRANCH 130 133
ENDBRANCH 128 130
BRANCH 128 138
ATOM    138  O   UNL     1     154.192 167.248 188.578  0.00  0.00    -0.366 OA
BRANCH 138 139
ATOM    139  C   UNL     1     153.621 166.803 187.357  0.00  0.00    +0.038 C 
ATOM    140  H   UNL     1     154.381 166.728 186.572  0.00  0.00    +0.052 HD
ATOM    141  H   UNL     1     152.813 167.468 187.040  0.00  0.00    +0.052 HD
ATOM    142  H   UNL     1     153.196 165.808 187.522  0.00  0.00    +0.052 HD
ENDBRANCH 138 139
ENDBRANCH 128 138
ENDBRANCH 126 128
ENDBRANCH 125 126
ENDBRANCH  90 125
ENDBRANCH  87  90
ENDBRANCH  84  87
ENDBRANCH  78  84
ENDBRANCH  76  78
BRANCH  76 143
ATOM    143  O   UNL     1     148.492 168.087 187.256  0.00  0.00    -0.379 OA
BRANCH 143 144
ATOM    144  C   UNL     1     148.561 168.114 185.837  0.00  0.00    +0.037 C 
ATOM    145  H   UNL     1     147.590 168.439 185.453  0.00  0.00    +0.052 HD
ATOM    146  H   UNL     1     149.323 168.822 185.498  0.00  0.00    +0.052 HD
ATOM    147  H   UNL     1     148.769 167.111 185.445  0.00  0.00    +0.052 HD
ENDBRANCH 143 144
ENDBRANCH  76 143
ENDBRANCH   1  76
TORSDOF 35
ENDMDL
MODEL 6
REMARK VINA RESULT:      -4.3      3.325      8.876
REMARK  Name = Mycalolide B_conf1
REMARK  35 active torsions:
REMARK  status: ('A' for Active; 'I' for Inactive)
REMARK    1  A    between atoms: C_1  and  C_2
REMARK    2  A    between atoms: C_3  and  O_72
REMARK    3  A    between atoms: C_22  and  O_70
REMARK    4  A    between atoms: C_23  and  C_69
REMARK    5  A    between atoms: C_29  and  O_68
REMARK    6  A    between atoms: C_34  and  C_35
REMARK    7  A    between atoms: C_35  and  C_36
REMARK    8  A    between atoms: C_36  and  C_37
REMARK    9  A    between atoms: C_36  and  O_66
REMARK   10  A    between atoms: C_37  and  C_38
REMARK   11  A    between atoms: C_37  and  C_39
REMARK   12  A    between atoms: C_39  and  C_40
REMARK   13  A    between atoms: C_40  and  C_41
REMARK   14  A    between atoms: C_41  and  C_42
REMARK   15  A    between atoms: C_41  and  O_57
REMARK   16  A    between atoms: C_42  and  C_43
REMARK   17  A    between atoms: C_42  and  C_44
REMARK   18  A    between atoms: C_44  and  C_45
REMARK   19  A    between atoms: C_44  and  O_53
REMARK   20  A    between atoms: C_45  and  C_46
REMARK   21  A    between atoms: C_45  and  C_47
REMARK   22  A    between atoms: C_48  and  N_49
REMARK   23  A    between atoms: N_49  and  C_50
REMARK   24  A    between atoms: O_53  and  C_54
REMARK   25  A    between atoms: C_54  and  C_56
REMARK   26  A    between atoms: O_57  and  C_58
REMARK   27  A    between atoms: C_58  and  C_60
REMARK   28  A    between atoms: C_60  and  C_61
REMARK   29  A    between atoms: C_60  and  O_64
REMARK   30  A    between atoms: C_61  and  O_62
REMARK   31  A    between atoms: O_62  and  C_63
REMARK   32  A    between atoms: O_64  and  C_65
REMARK   33  A    between atoms: O_66  and  C_67
REMARK   34  A    between atoms: O_70  and  C_71
REMARK   35  A    between atoms: O_72  and  C_73
REMARK                            x       y       z     vdW  Elec       q    Type
REMARK                         _______ _______ _______ _____ _____    ______ ____
ROOT
ATOM      1  C   UNL     1     144.621 167.801 188.826  0.00  0.00    +0.011 C 
ATOM      2  H   UNL     1     143.657 167.830 189.349  0.00  0.00    +0.033 HD
ATOM      3  H   UNL     1     145.367 168.020 189.598  0.00  0.00    +0.033 HD
ENDROOT
BRANCH   1  36
ATOM      4  C   UNL     1     143.571 165.570 188.012  0.00  0.00    +0.020 C 
ATOM      5  C   UNL     1     143.170 164.583 189.149  0.00  0.00    +0.068 C 
ATOM      6  C   UNL     1     142.996 165.165 190.580  0.00  0.00    -0.008 C 
ATOM      7  C   UNL     1     144.276 165.452 191.317  0.00  0.00    -0.077 C 
ATOM      8  C   UNL     1     144.409 166.283 192.364  0.00  0.00    -0.003 C 
ATOM      9  C   UNL     1     145.694 166.486 192.944  0.00  0.00    +0.220 A 
ATOM     10  N   UNL     1     146.851 166.181 192.376  0.00  0.00    -0.205 NA
ATOM     11  C   UNL     1     147.816 166.532 193.283  0.00  0.00    +0.164 A 
ATOM     12  C   UNL     1     147.224 167.074 194.390  0.00  0.00    +0.125 A 
ATOM     13  O   UNL     1     145.876 167.072 194.186  0.00  0.00    -0.443 OA
ATOM     14  C   UNL     1     149.343 166.326 193.053  0.00  0.00    +0.250 A 
ATOM     15  N   UNL     1     149.828 165.825 191.933  0.00  0.00    -0.203 NA
ATOM     16  C   UNL     1     151.185 165.791 192.129  0.00  0.00    +0.164 A 
ATOM     17  C   UNL     1     151.485 166.277 193.374  0.00  0.00    +0.125 A 
ATOM     18  O   UNL     1     150.315 166.633 193.979  0.00  0.00    -0.442 OA
ATOM     19  C   UNL     1     152.221 165.271 191.085  0.00  0.00    +0.249 A 
ATOM     20  N   UNL     1     151.879 164.829 189.885  0.00  0.00    -0.210 NA
ATOM     21  C   UNL     1     153.068 164.502 189.273  0.00  0.00    +0.109 A 
ATOM     22  C   UNL     1     154.102 164.751 190.147  0.00  0.00    +0.118 A 
ATOM     23  O   UNL     1     153.579 165.238 191.306  0.00  0.00    -0.442 OA
ATOM     24  C   UNL     1     153.111 164.024 187.851  0.00  0.00    +0.113 C 
ATOM     25  C   UNL     1     152.336 164.987 186.925  0.00  0.00    +0.051 C 
ATOM     26  C   UNL     1     152.463 164.501 185.488  0.00  0.00    +0.161 C 
ATOM     27  O   UNL     1     153.543 164.155 185.009  0.00  0.00    -0.292 OA
ATOM     28  C   UNL     1     151.268 164.492 184.593  0.00  0.00    -0.023 C 
ATOM     29  C   UNL     1     150.183 165.267 184.758  0.00  0.00    -0.078 C 
ATOM     30  C   UNL     1     149.011 165.264 183.813  0.00  0.00    -0.008 C 
ATOM     31  C   UNL     1     147.672 164.931 184.498  0.00  0.00    +0.069 C 
ATOM     32  C   UNL     1     147.126 166.103 185.324  0.00  0.00    +0.071 C 
ATOM     33  C   UNL     1     146.368 165.620 186.537  0.00  0.00    +0.310 C 
ATOM     34  O   UNL     1     146.547 164.548 187.095  0.00  0.00    -0.251 OA
ATOM     35  O   UNL     1     145.520 166.599 186.965  0.00  0.00    -0.461 OA
ATOM     36  C   UNL     1     144.874 166.393 188.251  0.00  0.00    +0.110 C 
ATOM     37  H   UNL     1     143.761 164.954 187.123  0.00  0.00    +0.036 HD
ATOM     38  H   UNL     1     142.192 164.158 188.885  0.00  0.00    +0.060 HD
ATOM     39  H   UNL     1     142.349 166.047 190.557  0.00  0.00    +0.033 HD
ATOM     40  H   UNL     1     142.474 164.399 191.171  0.00  0.00    +0.033 HD
ATOM     41  H   UNL     1     145.155 164.900 190.971  0.00  0.00    +0.057 HD
ATOM     42  H   UNL     1     143.563 166.810 192.788  0.00  0.00    +0.067 HD
ATOM     43  H   UNL     1     147.574 167.481 195.327  0.00  0.00    +0.105 HD
ATOM     44  H   UNL     1     152.391 166.428 193.936  0.00  0.00    +0.105 HD
ATOM     45  H   UNL     1     155.178 164.664 190.107  0.00  0.00    +0.105 HD
ATOM     46  H   UNL     1     154.155 163.956 187.517  0.00  0.00    +0.067 HD
ATOM     47  H   UNL     1     151.279 164.973 187.214  0.00  0.00    +0.041 HD
ATOM     48  H   UNL     1     151.364 163.827 183.739  0.00  0.00    +0.065 HD
ATOM     49  H   UNL     1     150.122 165.963 185.591  0.00  0.00    +0.057 HD
ATOM     50  H   UNL     1     148.941 166.245 183.326  0.00  0.00    +0.033 HD
ATOM     51  H   UNL     1     149.185 164.547 183.000  0.00  0.00    +0.033 HD
ATOM     52  H   UNL     1     147.789 164.022 185.097  0.00  0.00    +0.060 HD
ATOM     53  H   UNL     1     146.456 166.716 184.711  0.00  0.00    +0.040 HD
ATOM     54  H   UNL     1     147.929 166.740 185.708  0.00  0.00    +0.040 HD
ATOM     55  H   UNL     1     145.567 165.853 188.902  0.00  0.00    +0.074 HD
BRANCH   4  56
ATOM     56  C   UNL     1     142.367 166.435 187.606  0.00  0.00    -0.057 C 
ATOM     57  H   UNL     1     142.376 167.418 188.088  0.00  0.00    +0.023 HD
ATOM     58  H   UNL     1     142.337 166.581 186.522  0.00  0.00    +0.023 HD
ATOM     59  H   UNL     1     141.429 165.944 187.892  0.00  0.00    +0.023 HD
ENDBRANCH   4  56
BRANCH  25  60
ATOM     60  C   UNL     1     152.868 166.422 186.975  0.00  0.00    -0.053 C 
ATOM     61  H   UNL     1     152.068 167.152 186.812  0.00  0.00    +0.024 HD
ATOM     62  H   UNL     1     153.624 166.585 186.201  0.00  0.00    +0.024 HD
ATOM     63  H   UNL     1     153.320 166.645 187.946  0.00  0.00    +0.024 HD
ENDBRANCH  25  60
BRANCH  31  64
ATOM     64  O   UNL     1     146.707 164.640 183.477  0.00  0.00    -0.391 OA
ATOM     65  H   UNL     1     145.977 165.281 183.571  0.00  0.00    +0.210 HD
ENDBRANCH  31  64
BRANCH  24  66
ATOM     66  O   UNL     1     152.496 162.727 187.721  0.00  0.00    -0.373 OA
BRANCH  66  67
ATOM     67  C   UNL     1     153.273 161.682 188.289  0.00  0.00    +0.037 C 
ATOM     68  H   UNL     1     152.683 160.770 188.405  0.00  0.00    +0.052 HD
ATOM     69  H   UNL     1     153.684 161.995 189.254  0.00  0.00    +0.052 HD
ATOM     70  H   UNL     1     154.106 161.471 187.615  0.00  0.00    +0.052 HD
ENDBRANCH  66  67
ENDBRANCH  24  66
BRANCH   5  71
ATOM     71  O   UNL     1     144.093 163.486 189.256  0.00  0.00    -0.379 OA
BRANCH  71  72
ATOM     72  C   UNL     1     143.498 162.198 189.209  0.00  0.00    +0.037 C 
ATOM     73  H   UNL     1     142.434 162.322 188.979  0.00  0.00    +0.052 HD
ATOM     74  H   UNL     1     143.951 161.587 188.422  0.00  0.00    +0.052 HD
ATOM     75  H   UNL     1     143.573 161.687 190.170  0.00  0.00    +0.052 HD
ENDBRANCH  71  72
ENDBRANCH   5  71
ENDBRANCH   1  36
BRANCH   1  76
ATOM     76  C   UNL     1     144.656 168.968 187.817  0.00  0.00    +0.064 C 
ATOM     77  H   UNL     1     144.475 168.567 186.811  0.00  0.00    +0.060 HD
BRANCH  76  78
ATOM     78  C   UNL     1     143.647 170.132 188.042  0.00  0.00    -0.017 C 
ATOM     79  H   UNL     1     144.199 171.077 188.063  0.00  0.00    +0.032 HD
BRANCH  78  80
ATOM     80  C   UNL     1     142.578 170.201 186.939  0.00  0.00    -0.060 C 
ATOM     81  H   UNL     1     142.717 169.399 186.208  0.00  0.00    +0.023 HD
ATOM     82  H   UNL     1     142.620 171.155 186.405  0.00  0.00    +0.023 HD
ATOM     83  H   UNL     1     141.567 170.085 187.336  0.00  0.00    +0.023 HD
ENDBRANCH  78  80
BRANCH  78  84
ATOM     84  C   UNL     1     142.980 169.943 189.429  0.00  0.00    -0.045 C 
ATOM     85  H   UNL     1     142.063 170.532 189.435  0.00  0.00    +0.027 HD
ATOM     86  H   UNL     1     142.688 168.893 189.548  0.00  0.00    +0.027 HD
BRANCH  84  87
ATOM     87  C   UNL     1     143.831 170.356 190.630  0.00  0.00    -0.015 C 
ATOM     88  H   UNL     1     144.876 170.056 190.494  0.00  0.00    +0.030 HD
ATOM     89  H   UNL     1     143.493 169.799 191.515  0.00  0.00    +0.030 HD
BRANCH  87  90
ATOM     90  C   UNL     1     143.777 171.864 190.955  0.00  0.00    +0.109 C 
ATOM     91  H   UNL     1     143.695 171.965 192.044  0.00  0.00    +0.074 HD
BRANCH  90  92
ATOM     92  C   UNL     1     142.645 172.715 190.283  0.00  0.00    +0.031 C 
ATOM     93  H   UNL     1     141.960 171.978 189.842  0.00  0.00    +0.037 HD
BRANCH  92  94
ATOM     94  C   UNL     1     143.199 173.535 189.112  0.00  0.00    -0.056 C 
ATOM     95  H   UNL     1     142.622 174.439 188.912  0.00  0.00    +0.023 HD
ATOM     96  H   UNL     1     144.237 173.833 189.290  0.00  0.00    +0.023 HD
ATOM     97  H   UNL     1     143.207 172.943 188.194  0.00  0.00    +0.023 HD
ENDBRANCH  92  94
BRANCH  92  98
ATOM     98  C   UNL     1     141.807 173.548 191.304  0.00  0.00    +0.115 C 
ATOM     99  H   UNL     1     141.475 174.464 190.805  0.00  0.00    +0.074 HD
BRANCH  98 100
ATOM    100  C   UNL     1     140.557 172.866 191.939  0.00  0.00    +0.013 C 
ATOM    101  H   UNL     1     139.704 173.543 191.781  0.00  0.00    +0.038 HD
BRANCH 100 102
ATOM    102  C   UNL     1     140.639 172.726 193.463  0.00  0.00    -0.056 C 
ATOM    103  H   UNL     1     141.612 172.353 193.797  0.00  0.00    +0.024 HD
ATOM    104  H   UNL     1     140.461 173.689 193.951  0.00  0.00    +0.024 HD
ATOM    105  H   UNL     1     139.878 172.026 193.828  0.00  0.00    +0.024 HD
ENDBRANCH 100 102
BRANCH 100 106
ATOM    106  C   UNL     1     140.195 171.552 191.277  0.00  0.00    -0.064 C 
ATOM    107  C   UNL     1     139.138 171.444 190.459  0.00  0.00    -0.005 C 
ATOM    108  H   UNL     1     140.832 170.705 191.501  0.00  0.00    +0.059 HD
ATOM    109  H   UNL     1     138.531 172.334 190.273  0.00  0.00    +0.078 HD
BRANCH 107 110
ATOM    110  N   UNL     1     138.702 170.315 189.782  0.00  0.00    -0.284 N 
ATOM    111  C   UNL     1     139.411 169.652 188.790  0.00  0.00    +0.206 C 
ATOM    112  O   UNL     1     139.041 168.653 188.177  0.00  0.00    -0.279 OA
ATOM    113  H   UNL     1     140.383 170.106 188.558  0.00  0.00    +0.126 HD
BRANCH 110 114
ATOM    114  C   UNL     1     137.377 169.806 190.126  0.00  0.00    +0.007 C 
ATOM    115  H   UNL     1     137.214 169.789 191.207  0.00  0.00    +0.043 HD
ATOM    116  H   UNL     1     136.612 170.440 189.670  0.00  0.00    +0.043 HD
ATOM    117  H   UNL     1     137.284 168.786 189.742  0.00  0.00    +0.043 HD
ENDBRANCH 110 114
ENDBRANCH 107 110
ENDBRANCH 100 106
ENDBRANCH  98 100
BRANCH  98 118
ATOM    118  O   UNL     1     142.698 173.917 192.393  0.00  0.00    -0.461 OA
BRANCH 118 119
ATOM    119  C   UNL     1     142.947 175.244 192.566  0.00  0.00    +0.304 C 
ATOM    120  O   UNL     1     142.843 176.103 191.704  0.00  0.00    -0.251 OA
BRANCH 119 121
ATOM    121  C   UNL     1     143.366 175.505 193.981  0.00  0.00    +0.033 C 
ATOM    122  H   UNL     1     144.111 176.302 194.003  0.00  0.00    +0.034 HD
ATOM    123  H   UNL     1     143.816 174.598 194.396  0.00  0.00    +0.034 HD
ATOM    124  H   UNL     1     142.496 175.772 194.585  0.00  0.00    +0.034 HD
ENDBRANCH 119 121
ENDBRANCH 118 119
ENDBRANCH  98 118
ENDBRANCH  92  98
ENDBRANCH  90  92
BRANCH  90 125
ATOM    125  O   UNL     1     145.034 172.428 190.497  0.00  0.00    -0.459 OA
BRANCH 125 126
ATOM    126  C   UNL     1     146.036 172.576 191.419  0.00  0.00    +0.339 C 
ATOM    127  O   UNL     1     145.968 173.273 192.423  0.00  0.00    -0.248 OA
BRANCH 126 128
ATOM    128  C   UNL     1     147.230 171.690 191.013  0.00  0.00    +0.178 C 
ATOM    129  H   UNL     1     147.126 171.467 189.941  0.00  0.00    +0.074 HD
BRANCH 128 130
ATOM    130  C   UNL     1     148.531 172.486 191.216  0.00  0.00    +0.084 C 
ATOM    131  H   UNL     1     148.318 173.504 191.563  0.00  0.00    +0.059 HD
ATOM    132  H   UNL     1     149.066 172.550 190.261  0.00  0.00    +0.059 HD
BRANCH 130 133
ATOM    133  O   UNL     1     149.376 171.845 192.180  0.00  0.00    -0.380 OA
BRANCH 133 134
ATOM    134  C   UNL     1     149.432 172.568 193.401  0.00  0.00    +0.037 C 
ATOM    135  H   UNL     1     148.574 172.317 194.032  0.00  0.00    +0.052 HD
ATOM    136  H   UNL     1     150.366 172.358 193.932  0.00  0.00    +0.052 HD
ATOM    137  H   UNL     1     149.393 173.637 193.168  0.00  0.00    +0.052 HD
ENDBRANCH 133 134
ENDBRANCH 130 133
ENDBRANCH 128 130
BRANCH 128 138
ATOM    138  O   UNL     1     147.386 170.445 191.703  0.00  0.00    -0.366 OA
BRANCH 138 139
ATOM    139  C   UNL     1     147.516 169.331 190.834  0.00  0.00    +0.038 C 
ATOM    140  H   UNL     1     146.681 169.286 190.126  0.00  0.00    +0.052 HD
ATOM    141  H   UNL     1     147.582 168.399 191.402  0.00  0.00    +0.052 HD
ATOM    142  H   UNL     1     148.444 169.448 190.265  0.00  0.00    +0.052 HD
ENDBRANCH 138 139
ENDBRANCH 128 138
ENDBRANCH 126 128
ENDBRANCH 125 126
ENDBRANCH  90 125
ENDBRANCH  87  90
ENDBRANCH  84  87
ENDBRANCH  78  84
ENDBRANCH  76  78
BRANCH  76 143
ATOM    143  O   UNL     1     145.980 169.542 187.876  0.00  0.00    -0.379 OA
BRANCH 143 144
ATOM    144  C   UNL     1     146.027 170.911 187.496  0.00  0.00    +0.037 C 
ATOM    145  H   UNL     1     147.038 171.283 187.683  0.00  0.00    +0.052 HD
ATOM    146  H   UNL     1     145.805 171.026 186.431  0.00  0.00    +0.052 HD
ATOM    147  H   UNL     1     145.325 171.498 188.099  0.00  0.00    +0.052 HD
ENDBRANCH 143 144
ENDBRANCH  76 143
ENDBRANCH   1  76
TORSDOF 35
ENDMDL
MODEL 7
REMARK VINA RESULT:      -4.3      2.467      8.446
REMARK  Name = Mycalolide B_conf1
REMARK  35 active torsions:
REMARK  status: ('A' for Active; 'I' for Inactive)
REMARK    1  A    between atoms: C_1  and  C_2
REMARK    2  A    between atoms: C_3  and  O_72
REMARK    3  A    between atoms: C_22  and  O_70
REMARK    4  A    between atoms: C_23  and  C_69
REMARK    5  A    between atoms: C_29  and  O_68
REMARK    6  A    between atoms: C_34  and  C_35
REMARK    7  A    between atoms: C_35  and  C_36
REMARK    8  A    between atoms: C_36  and  C_37
REMARK    9  A    between atoms: C_36  and  O_66
REMARK   10  A    between atoms: C_37  and  C_38
REMARK   11  A    between atoms: C_37  and  C_39
REMARK   12  A    between atoms: C_39  and  C_40
REMARK   13  A    between atoms: C_40  and  C_41
REMARK   14  A    between atoms: C_41  and  C_42
REMARK   15  A    between atoms: C_41  and  O_57
REMARK   16  A    between atoms: C_42  and  C_43
REMARK   17  A    between atoms: C_42  and  C_44
REMARK   18  A    between atoms: C_44  and  C_45
REMARK   19  A    between atoms: C_44  and  O_53
REMARK   20  A    between atoms: C_45  and  C_46
REMARK   21  A    between atoms: C_45  and  C_47
REMARK   22  A    between atoms: C_48  and  N_49
REMARK   23  A    between atoms: N_49  and  C_50
REMARK   24  A    between atoms: O_53  and  C_54
REMARK   25  A    between atoms: C_54  and  C_56
REMARK   26  A    between atoms: O_57  and  C_58
REMARK   27  A    between atoms: C_58  and  C_60
REMARK   28  A    between atoms: C_60  and  C_61
REMARK   29  A    between atoms: C_60  and  O_64
REMARK   30  A    between atoms: C_61  and  O_62
REMARK   31  A    between atoms: O_62  and  C_63
REMARK   32  A    between atoms: O_64  and  C_65
REMARK   33  A    between atoms: O_66  and  C_67
REMARK   34  A    between atoms: O_70  and  C_71
REMARK   35  A    between atoms: O_72  and  C_73
REMARK                            x       y       z     vdW  Elec       q    Type
REMARK                         _______ _______ _______ _____ _____    ______ ____
ROOT
ATOM      1  C   UNL     1     148.883 164.202 185.074  0.00  0.00    +0.011 C 
ATOM      2  H   UNL     1     149.524 164.656 184.308  0.00  0.00    +0.033 HD
ATOM      3  H   UNL     1     148.175 163.579 184.517  0.00  0.00    +0.033 HD
ENDROOT
BRANCH   1  36
ATOM      4  C   UNL     1     150.145 161.953 185.378  0.00  0.00    +0.020 C 
ATOM      5  C   UNL     1     149.234 160.733 185.714  0.00  0.00    +0.068 C 
ATOM      6  C   UNL     1     147.719 160.853 185.387  0.00  0.00    -0.008 C 
ATOM      7  C   UNL     1     146.918 161.683 186.351  0.00  0.00    -0.077 C 
ATOM      8  C   UNL     1     145.724 162.244 186.100  0.00  0.00    -0.003 C 
ATOM      9  C   UNL     1     145.091 163.036 187.100  0.00  0.00    +0.220 A 
ATOM     10  N   UNL     1     145.688 163.547 188.167  0.00  0.00    -0.205 NA
ATOM     11  C   UNL     1     144.713 164.221 188.854  0.00  0.00    +0.164 A 
ATOM     12  C   UNL     1     143.530 164.127 188.173  0.00  0.00    +0.125 A 
ATOM     13  O   UNL     1     143.754 163.395 187.045  0.00  0.00    -0.443 OA
ATOM     14  C   UNL     1     144.952 164.963 190.203  0.00  0.00    +0.250 A 
ATOM     15  N   UNL     1     146.141 165.031 190.771  0.00  0.00    -0.203 NA
ATOM     16  C   UNL     1     145.931 165.741 191.926  0.00  0.00    +0.164 A 
ATOM     17  C   UNL     1     144.609 166.085 192.024  0.00  0.00    +0.125 A 
ATOM     18  O   UNL     1     143.966 165.600 190.922  0.00  0.00    -0.442 OA
ATOM     19  C   UNL     1     147.039 166.094 192.966  0.00  0.00    +0.249 A 
ATOM     20  N   UNL     1     148.309 165.752 192.813  0.00  0.00    -0.210 NA
ATOM     21  C   UNL     1     148.953 166.272 193.914  0.00  0.00    +0.109 A 
ATOM     22  C   UNL     1     148.028 166.908 194.711  0.00  0.00    +0.118 A 
ATOM     23  O   UNL     1     146.805 166.800 194.123  0.00  0.00    -0.442 OA
ATOM     24  C   UNL     1     150.440 166.160 194.075  0.00  0.00    +0.113 C 
ATOM     25  C   UNL     1     151.170 166.655 192.807  0.00  0.00    +0.051 C 
ATOM     26  C   UNL     1     152.672 166.587 193.042  0.00  0.00    +0.161 C 
ATOM     27  O   UNL     1     153.191 167.005 194.076  0.00  0.00    -0.292 OA
ATOM     28  C   UNL     1     153.572 166.056 191.975  0.00  0.00    -0.023 C 
ATOM     29  C   UNL     1     153.275 166.034 190.664  0.00  0.00    -0.078 C 
ATOM     30  C   UNL     1     154.223 165.530 189.608  0.00  0.00    -0.008 C 
ATOM     31  C   UNL     1     153.642 164.382 188.761  0.00  0.00    +0.069 C 
ATOM     32  C   UNL     1     152.608 164.870 187.738  0.00  0.00    +0.071 C 
ATOM     33  C   UNL     1     151.529 163.840 187.505  0.00  0.00    +0.310 C 
ATOM     34  O   UNL     1     151.194 162.982 188.307  0.00  0.00    -0.251 OA
ATOM     35  O   UNL     1     150.930 164.070 186.302  0.00  0.00    -0.461 OA
ATOM     36  C   UNL     1     149.722 163.313 186.013  0.00  0.00    +0.110 C 
ATOM     37  H   UNL     1     151.134 161.721 185.791  0.00  0.00    +0.036 HD
ATOM     38  H   UNL     1     149.596 159.882 185.121  0.00  0.00    +0.060 HD
ATOM     39  H   UNL     1     147.578 161.198 184.358  0.00  0.00    +0.033 HD
ATOM     40  H   UNL     1     147.303 159.837 185.445  0.00  0.00    +0.033 HD
ATOM     41  H   UNL     1     147.351 161.799 187.349  0.00  0.00    +0.057 HD
ATOM     42  H   UNL     1     145.218 162.113 185.151  0.00  0.00    +0.067 HD
ATOM     43  H   UNL     1     142.525 164.490 188.326  0.00  0.00    +0.105 HD
ATOM     44  H   UNL     1     144.012 166.623 192.740  0.00  0.00    +0.105 HD
ATOM     45  H   UNL     1     148.066 167.456 195.642  0.00  0.00    +0.105 HD
ATOM     46  H   UNL     1     150.762 166.757 194.939  0.00  0.00    +0.067 HD
ATOM     47  H   UNL     1     150.908 165.993 191.974  0.00  0.00    +0.041 HD
ATOM     48  H   UNL     1     154.539 165.724 192.341  0.00  0.00    +0.065 HD
ATOM     49  H   UNL     1     152.321 166.414 190.307  0.00  0.00    +0.057 HD
ATOM     50  H   UNL     1     154.505 166.364 188.953  0.00  0.00    +0.033 HD
ATOM     51  H   UNL     1     155.159 165.194 190.072  0.00  0.00    +0.033 HD
ATOM     52  H   UNL     1     153.234 163.613 189.426  0.00  0.00    +0.060 HD
ATOM     53  H   UNL     1     153.099 165.089 186.783  0.00  0.00    +0.040 HD
ATOM     54  H   UNL     1     152.090 165.772 188.080  0.00  0.00    +0.040 HD
ATOM     55  H   UNL     1     149.181 163.160 186.950  0.00  0.00    +0.074 HD
BRANCH   4  56
ATOM     56  C   UNL     1     150.391 162.035 183.863  0.00  0.00    -0.057 C 
ATOM     57  H   UNL     1     149.678 161.435 183.289  0.00  0.00    +0.023 HD
ATOM     58  H   UNL     1     150.333 163.070 183.513  0.00  0.00    +0.023 HD
ATOM     59  H   UNL     1     151.395 161.666 183.618  0.00  0.00    +0.023 HD
ENDBRANCH   4  56
BRANCH  25  60
ATOM     60  C   UNL     1     150.824 168.103 192.447  0.00  0.00    -0.053 C 
ATOM     61  H   UNL     1     151.038 168.784 193.277  0.00  0.00    +0.024 HD
ATOM     62  H   UNL     1     149.763 168.202 192.206  0.00  0.00    +0.024 HD
ATOM     63  H   UNL     1     151.404 168.447 191.585  0.00  0.00    +0.024 HD
ENDBRANCH  25  60
BRANCH  31  64
ATOM     64  O   UNL     1     154.717 163.778 188.030  0.00  0.00    -0.391 OA
ATOM     65  H   UNL     1     154.326 163.124 187.419  0.00  0.00    +0.210 HD
ENDBRANCH  31  64
BRANCH  24  66
ATOM     66  O   UNL     1     150.838 164.790 194.283  0.00  0.00    -0.373 OA
BRANCH  66  67
ATOM     67  C   UNL     1     150.949 164.443 195.656  0.00  0.00    +0.037 C 
ATOM     68  H   UNL     1     151.634 165.116 196.178  0.00  0.00    +0.052 HD
ATOM     69  H   UNL     1     151.279 163.405 195.762  0.00  0.00    +0.052 HD
ATOM     70  H   UNL     1     149.960 164.536 196.113  0.00  0.00    +0.052 HD
ENDBRANCH  66  67
ENDBRANCH  24  66
BRANCH   5  71
ATOM     71  O   UNL     1     149.332 160.357 187.098  0.00  0.00    -0.379 OA
BRANCH  71  72
ATOM     72  C   UNL     1     150.496 159.617 187.434  0.00  0.00    +0.037 C 
ATOM     73  H   UNL     1     150.746 158.971 186.586  0.00  0.00    +0.052 HD
ATOM     74  H   UNL     1     151.344 160.284 187.620  0.00  0.00    +0.052 HD
ATOM     75  H   UNL     1     150.327 158.977 188.301  0.00  0.00    +0.052 HD
ENDBRANCH  71  72
ENDBRANCH   5  71
ENDBRANCH   1  36
BRANCH   1  76
ATOM     76  C   UNL     1     148.066 165.327 185.745  0.00  0.00    +0.064 C 
ATOM     77  H   UNL     1     147.146 164.893 186.156  0.00  0.00    +0.060 HD
BRANCH  76  78
ATOM     78  C   UNL     1     148.760 166.120 186.891  0.00  0.00    -0.017 C 
ATOM     79  H   UNL     1     149.482 165.464 187.386  0.00  0.00    +0.032 HD
BRANCH  78  80
ATOM     80  C   UNL     1     149.492 167.371 186.377  0.00  0.00    -0.060 C 
ATOM     81  H   UNL     1     148.780 168.133 186.047  0.00  0.00    +0.023 HD
ATOM     82  H   UNL     1     150.144 167.131 185.532  0.00  0.00    +0.023 HD
ATOM     83  H   UNL     1     150.106 167.837 187.151  0.00  0.00    +0.023 HD
ENDBRANCH  78  80
BRANCH  78  84
ATOM     84  C   UNL     1     147.685 166.515 187.937  0.00  0.00    -0.045 C 
ATOM     85  H   UNL     1     146.879 167.019 187.405  0.00  0.00    +0.027 HD
ATOM     86  H   UNL     1     147.259 165.604 188.376  0.00  0.00    +0.027 HD
BRANCH  84  87
ATOM     87  C   UNL     1     148.169 167.425 189.066  0.00  0.00    -0.015 C 
ATOM     88  H   UNL     1     149.117 167.907 188.804  0.00  0.00    +0.030 HD
ATOM     89  H   UNL     1     148.401 166.809 189.946  0.00  0.00    +0.030 HD
BRANCH  87  90
ATOM     90  C   UNL     1     147.151 168.507 189.485  0.00  0.00    +0.109 C 
ATOM     91  H   UNL     1     146.601 168.125 190.353  0.00  0.00    +0.074 HD
BRANCH  90  92
ATOM     92  C   UNL     1     146.120 168.995 188.410  0.00  0.00    +0.031 C 
ATOM     93  H   UNL     1     145.746 168.077 187.937  0.00  0.00    +0.037 HD
BRANCH  92  94
ATOM     94  C   UNL     1     146.821 169.790 187.301  0.00  0.00    -0.056 C 
ATOM     95  H   UNL     1     147.568 169.205 186.763  0.00  0.00    +0.023 HD
ATOM     96  H   UNL     1     146.102 170.172 186.570  0.00  0.00    +0.023 HD
ATOM     97  H   UNL     1     147.328 170.666 187.714  0.00  0.00    +0.023 HD
ENDBRANCH  92  94
BRANCH  92  98
ATOM     98  C   UNL     1     144.879 169.717 189.024  0.00  0.00    +0.115 C 
ATOM     99  H   UNL     1     145.219 170.311 189.879  0.00  0.00    +0.074 HD
BRANCH  98 100
ATOM    100  C   UNL     1     144.050 170.650 188.089  0.00  0.00    +0.013 C 
ATOM    101  H   UNL     1     143.124 170.904 188.625  0.00  0.00    +0.038 HD
BRANCH 100 102
ATOM    102  C   UNL     1     143.560 169.964 186.810  0.00  0.00    -0.056 C 
ATOM    103  H   UNL     1     143.822 170.525 185.907  0.00  0.00    +0.024 HD
ATOM    104  H   UNL     1     143.987 168.961 186.720  0.00  0.00    +0.024 HD
ATOM    105  H   UNL     1     142.469 169.858 186.823  0.00  0.00    +0.024 HD
ENDBRANCH 100 102
BRANCH 100 106
ATOM    106  C   UNL     1     144.748 171.961 187.787  0.00  0.00    -0.064 C 
ATOM    107  C   UNL     1     144.173 172.905 187.026  0.00  0.00    -0.005 C 
ATOM    108  H   UNL     1     145.734 172.095 188.214  0.00  0.00    +0.059 HD
ATOM    109  H   UNL     1     143.176 172.711 186.622  0.00  0.00    +0.078 HD
BRANCH 107 110
ATOM    110  N   UNL     1     144.688 174.146 186.682  0.00  0.00    -0.284 N 
ATOM    111  C   UNL     1     146.017 174.406 186.381  0.00  0.00    +0.206 C 
ATOM    112  O   UNL     1     146.493 175.498 186.077  0.00  0.00    -0.279 OA
ATOM    113  H   UNL     1     146.670 173.525 186.444  0.00  0.00    +0.126 HD
BRANCH 110 114
ATOM    114  C   UNL     1     143.754 175.269 186.665  0.00  0.00    +0.007 C 
ATOM    115  H   UNL     1     143.304 175.440 187.646  0.00  0.00    +0.043 HD
ATOM    116  H   UNL     1     144.281 176.177 186.361  0.00  0.00    +0.043 HD
ATOM    117  H   UNL     1     142.959 175.050 185.947  0.00  0.00    +0.043 HD
ENDBRANCH 110 114
ENDBRANCH 107 110
ENDBRANCH 100 106
ENDBRANCH  98 100
BRANCH  98 118
ATOM    118  O   UNL     1     143.978 168.685 189.512  0.00  0.00    -0.461 OA
BRANCH 118 119
ATOM    119  C   UNL     1     143.072 169.052 190.460  0.00  0.00    +0.304 C 
ATOM    120  O   UNL     1     143.331 169.647 191.495  0.00  0.00    -0.251 OA
BRANCH 119 121
ATOM    121  C   UNL     1     141.698 168.624 190.046  0.00  0.00    +0.033 C 
ATOM    122  H   UNL     1     141.745 168.117 189.080  0.00  0.00    +0.034 HD
ATOM    123  H   UNL     1     141.060 169.507 189.943  0.00  0.00    +0.034 HD
ATOM    124  H   UNL     1     141.266 167.968 190.805  0.00  0.00    +0.034 HD
ENDBRANCH 119 121
ENDBRANCH 118 119
ENDBRANCH  98 118
ENDBRANCH  92  98
ENDBRANCH  90  92
BRANCH  90 125
ATOM    125  O   UNL     1     147.926 169.675 189.863  0.00  0.00    -0.459 OA
BRANCH 125 126
ATOM    126  C   UNL     1     147.908 170.047 191.181  0.00  0.00    +0.339 C 
ATOM    127  O   UNL     1     147.617 169.311 192.115  0.00  0.00    -0.248 OA
BRANCH 126 128
ATOM    128  C   UNL     1     148.362 171.516 191.297  0.00  0.00    +0.178 C 
ATOM    129  H   UNL     1     148.622 171.861 190.286  0.00  0.00    +0.074 HD
BRANCH 128 130
ATOM    130  C   UNL     1     147.181 172.362 191.806  0.00  0.00    +0.084 C 
ATOM    131  H   UNL     1     147.289 173.409 191.501  0.00  0.00    +0.059 HD
ATOM    132  H   UNL     1     147.155 172.321 192.901  0.00  0.00    +0.059 HD
BRANCH 130 133
ATOM    133  O   UNL     1     145.939 171.864 191.292  0.00  0.00    -0.380 OA
BRANCH 133 134
ATOM    134  C   UNL     1     144.878 172.790 191.478  0.00  0.00    +0.037 C 
ATOM    135  H   UNL     1     144.580 172.820 192.530  0.00  0.00    +0.052 HD
ATOM    136  H   UNL     1     145.173 173.788 191.140  0.00  0.00    +0.052 HD
ATOM    137  H   UNL     1     144.023 172.455 190.882  0.00  0.00    +0.052 HD
ENDBRANCH 133 134
ENDBRANCH 130 133
ENDBRANCH 128 130
BRANCH 128 138
ATOM    138  O   UNL     1     149.477 171.793 192.150  0.00  0.00    -0.366 OA
BRANCH 138 139
ATOM    139  C   UNL     1     149.126 172.514 193.322  0.00  0.00    +0.038 C 
ATOM    140  H   UNL     1     148.434 173.330 193.088  0.00  0.00    +0.052 HD
ATOM    141  H   UNL     1     150.017 172.903 193.821  0.00  0.00    +0.052 HD
ATOM    142  H   UNL     1     148.626 171.824 194.009  0.00  0.00    +0.052 HD
ENDBRANCH 138 139
ENDBRANCH 128 138
ENDBRANCH 126 128
ENDBRANCH 125 126
ENDBRANCH  90 125
ENDBRANCH  87  90
ENDBRANCH  84  87
ENDBRANCH  78  84
ENDBRANCH  76  78
BRANCH  76 143
ATOM    143  O   UNL     1     147.732 166.282 184.715  0.00  0.00    -0.379 OA
BRANCH 143 144
ATOM    144  C   UNL     1     147.867 165.771 183.396  0.00  0.00    +0.037 C 
ATOM    145  H   UNL     1     148.580 166.402 182.857  0.00  0.00    +0.052 HD
ATOM    146  H   UNL     1     148.252 164.748 183.413  0.00  0.00    +0.052 HD
ATOM    147  H   UNL     1     146.905 165.809 182.871  0.00  0.00    +0.052 HD
ENDBRANCH 143 144
ENDBRANCH  76 143
ENDBRANCH   1  76
TORSDOF 35
ENDMDL
MODEL 8
REMARK VINA RESULT:      -4.3      2.936      8.918
REMARK  Name = Mycalolide B_conf1
REMARK  35 active torsions:
REMARK  status: ('A' for Active; 'I' for Inactive)
REMARK    1  A    between atoms: C_1  and  C_2
REMARK    2  A    between atoms: C_3  and  O_72
REMARK    3  A    between atoms: C_22  and  O_70
REMARK    4  A    between atoms: C_23  and  C_69
REMARK    5  A    between atoms: C_29  and  O_68
REMARK    6  A    between atoms: C_34  and  C_35
REMARK    7  A    between atoms: C_35  and  C_36
REMARK    8  A    between atoms: C_36  and  C_37
REMARK    9  A    between atoms: C_36  and  O_66
REMARK   10  A    between atoms: C_37  and  C_38
REMARK   11  A    between atoms: C_37  and  C_39
REMARK   12  A    between atoms: C_39  and  C_40
REMARK   13  A    between atoms: C_40  and  C_41
REMARK   14  A    between atoms: C_41  and  C_42
REMARK   15  A    between atoms: C_41  and  O_57
REMARK   16  A    between atoms: C_42  and  C_43
REMARK   17  A    between atoms: C_42  and  C_44
REMARK   18  A    between atoms: C_44  and  C_45
REMARK   19  A    between atoms: C_44  and  O_53
REMARK   20  A    between atoms: C_45  and  C_46
REMARK   21  A    between atoms: C_45  and  C_47
REMARK   22  A    between atoms: C_48  and  N_49
REMARK   23  A    between atoms: N_49  and  C_50
REMARK   24  A    between atoms: O_53  and  C_54
REMARK   25  A    between atoms: C_54  and  C_56
REMARK   26  A    between atoms: O_57  and  C_58
REMARK   27  A    between atoms: C_58  and  C_60
REMARK   28  A    between atoms: C_60  and  C_61
REMARK   29  A    between atoms: C_60  and  O_64
REMARK   30  A    between atoms: C_61  and  O_62
REMARK   31  A    between atoms: O_62  and  C_63
REMARK   32  A    between atoms: O_64  and  C_65
REMARK   33  A    between atoms: O_66  and  C_67
REMARK   34  A    between atoms: O_70  and  C_71
REMARK   35  A    between atoms: O_72  and  C_73
REMARK                            x       y       z     vdW  Elec       q    Type
REMARK                         _______ _______ _______ _____ _____    ______ ____
ROOT
ATOM      1  C   UNL     1     146.624 165.219 184.690  0.00  0.00    +0.011 C 
ATOM      2  H   UNL     1     147.056 165.929 183.973  0.00  0.00    +0.033 HD
ATOM      3  H   UNL     1     145.990 164.561 184.087  0.00  0.00    +0.033 HD
ENDROOT
BRANCH   1  36
ATOM      4  C   UNL     1     148.163 163.133 184.535  0.00  0.00    +0.020 C 
ATOM      5  C   UNL     1     147.488 161.791 184.948  0.00  0.00    +0.068 C 
ATOM      6  C   UNL     1     145.934 161.738 184.953  0.00  0.00    -0.008 C 
ATOM      7  C   UNL     1     145.273 162.401 186.129  0.00  0.00    -0.077 C 
ATOM      8  C   UNL     1     143.998 162.821 186.179  0.00  0.00    -0.003 C 
ATOM      9  C   UNL     1     143.513 163.467 187.352  0.00  0.00    +0.220 A 
ATOM     10  N   UNL     1     144.265 163.985 188.311  0.00  0.00    -0.205 NA
ATOM     11  C   UNL     1     143.392 164.489 189.239  0.00  0.00    +0.164 A 
ATOM     12  C   UNL     1     142.109 164.286 188.813  0.00  0.00    +0.125 A 
ATOM     13  O   UNL     1     142.164 163.657 187.605  0.00  0.00    -0.443 OA
ATOM     14  C   UNL     1     143.833 165.174 190.567  0.00  0.00    +0.250 A 
ATOM     15  N   UNL     1     145.102 165.358 190.881  0.00  0.00    -0.203 NA
ATOM     16  C   UNL     1     145.069 165.967 192.109  0.00  0.00    +0.164 A 
ATOM     17  C   UNL     1     143.769 166.135 192.508  0.00  0.00    +0.125 A 
ATOM     18  O   UNL     1     142.961 165.639 191.526  0.00  0.00    -0.442 OA
ATOM     19  C   UNL     1     146.330 166.395 192.923  0.00  0.00    +0.249 A 
ATOM     20  N   UNL     1     147.566 166.226 192.482  0.00  0.00    -0.210 NA
ATOM     21  C   UNL     1     148.371 166.757 193.466  0.00  0.00    +0.109 A 
ATOM     22  C   UNL     1     147.575 167.223 194.488  0.00  0.00    +0.118 A 
ATOM     23  O   UNL     1     146.274 166.997 194.159  0.00  0.00    -0.442 OA
ATOM     24  C   UNL     1     149.861 166.824 193.305  0.00  0.00    +0.113 C 
ATOM     25  C   UNL     1     150.240 167.481 191.960  0.00  0.00    +0.051 C 
ATOM     26  C   UNL     1     151.756 167.589 191.871  0.00  0.00    +0.161 C 
ATOM     27  O   UNL     1     152.436 168.009 192.808  0.00  0.00    -0.292 OA
ATOM     28  C   UNL     1     152.457 167.240 190.600  0.00  0.00    -0.023 C 
ATOM     29  C   UNL     1     151.888 167.258 189.383  0.00  0.00    -0.078 C 
ATOM     30  C   UNL     1     152.636 166.941 188.115  0.00  0.00    -0.008 C 
ATOM     31  C   UNL     1     152.017 165.781 187.312  0.00  0.00    +0.069 C 
ATOM     32  C   UNL     1     150.739 166.194 186.570  0.00  0.00    +0.071 C 
ATOM     33  C   UNL     1     149.756 165.051 186.480  0.00  0.00    +0.310 C 
ATOM     34  O   UNL     1     149.699 164.112 187.259  0.00  0.00    -0.251 OA
ATOM     35  O   UNL     1     148.890 165.274 185.451  0.00  0.00    -0.461 OA
ATOM     36  C   UNL     1     147.740 164.390 185.356  0.00  0.00    +0.110 C 
ATOM     37  H   UNL     1     149.238 163.004 184.713  0.00  0.00    +0.036 HD
ATOM     38  H   UNL     1     147.805 161.028 184.223  0.00  0.00    +0.060 HD
ATOM     39  H   UNL     1     145.537 162.122 184.009  0.00  0.00    +0.033 HD
ATOM     40  H   UNL     1     145.655 160.676 185.010  0.00  0.00    +0.033 HD
ATOM     41  H   UNL     1     145.895 162.512 187.022  0.00  0.00    +0.057 HD
ATOM     42  H   UNL     1     143.317 162.683 185.347  0.00  0.00    +0.067 HD
ATOM     43  H   UNL     1     141.126 164.511 189.201  0.00  0.00    +0.105 HD
ATOM     44  H   UNL     1     143.285 166.550 193.375  0.00  0.00    +0.105 HD
ATOM     45  H   UNL     1     147.752 167.716 195.433  0.00  0.00    +0.105 HD
ATOM     46  H   UNL     1     150.294 167.405 194.131  0.00  0.00    +0.067 HD
ATOM     47  H   UNL     1     149.880 166.841 191.147  0.00  0.00    +0.041 HD
ATOM     48  H   UNL     1     153.512 167.012 190.729  0.00  0.00    +0.065 HD
ATOM     49  H   UNL     1     150.844 167.535 189.265  0.00  0.00    +0.057 HD
ATOM     50  H   UNL     1     152.676 167.841 187.488  0.00  0.00    +0.033 HD
ATOM     51  H   UNL     1     153.682 166.699 188.344  0.00  0.00    +0.033 HD
ATOM     52  H   UNL     1     151.850 164.929 187.980  0.00  0.00    +0.060 HD
ATOM     53  H   UNL     1     150.985 166.529 185.557  0.00  0.00    +0.040 HD
ATOM     54  H   UNL     1     150.211 167.001 187.087  0.00  0.00    +0.040 HD
ATOM     55  H   UNL     1     147.434 164.114 186.369  0.00  0.00    +0.074 HD
BRANCH   4  56
ATOM     56  C   UNL     1     148.066 163.335 183.015  0.00  0.00    -0.057 C 
ATOM     57  H   UNL     1     148.809 164.044 182.637  0.00  0.00    +0.023 HD
ATOM     58  H   UNL     1     148.193 162.385 182.485  0.00  0.00    +0.023 HD
ATOM     59  H   UNL     1     147.078 163.726 182.742  0.00  0.00    +0.023 HD
ENDBRANCH   4  56
BRANCH  25  60
ATOM     60  C   UNL     1     149.667 168.892 191.802  0.00  0.00    -0.053 C 
ATOM     61  H   UNL     1     149.261 169.049 190.797  0.00  0.00    +0.024 HD
ATOM     62  H   UNL     1     150.440 169.648 191.965  0.00  0.00    +0.024 HD
ATOM     63  H   UNL     1     148.856 169.074 192.514  0.00  0.00    +0.024 HD
ENDBRANCH  25  60
BRANCH  31  64
ATOM     64  O   UNL     1     152.969 165.361 186.326  0.00  0.00    -0.391 OA
ATOM     65  H   UNL     1     153.692 164.900 186.793  0.00  0.00    +0.210 HD
ENDBRANCH  31  64
BRANCH  24  66
ATOM     66  O   UNL     1     150.443 165.505 193.309  0.00  0.00    -0.373 OA
BRANCH  66  67
ATOM     67  C   UNL     1     150.819 165.066 194.607  0.00  0.00    +0.037 C 
ATOM     68  H   UNL     1     151.771 165.506 194.912  0.00  0.00    +0.052 HD
ATOM     69  H   UNL     1     150.876 163.973 194.638  0.00  0.00    +0.052 HD
ATOM     70  H   UNL     1     150.049 165.388 195.313  0.00  0.00    +0.052 HD
ENDBRANCH  66  67
ENDBRANCH  24  66
BRANCH   5  71
ATOM     71  O   UNL     1     147.923 161.349 186.245  0.00  0.00    -0.379 OA
BRANCH  71  72
ATOM     72  C   UNL     1     149.202 160.733 186.267  0.00  0.00    +0.037 C 
ATOM     73  H   UNL     1     149.181 159.932 187.013  0.00  0.00    +0.052 HD
ATOM     74  H   UNL     1     149.439 160.290 185.294  0.00  0.00    +0.052 HD
ATOM     75  H   UNL     1     149.982 161.439 186.557  0.00  0.00    +0.052 HD
ENDBRANCH  71  72
ENDBRANCH   5  71
ENDBRANCH   1  36
BRANCH   1  76
ATOM     76  C   UNL     1     145.693 166.002 185.640  0.00  0.00    +0.064 C 
ATOM     77  H   UNL     1     145.593 165.437 186.575  0.00  0.00    +0.060 HD
BRANCH  76  78
ATOM     78  C   UNL     1     146.119 167.452 186.015  0.00  0.00    -0.017 C 
ATOM     79  H   UNL     1     146.757 167.413 186.903  0.00  0.00    +0.032 HD
BRANCH  78  80
ATOM     80  C   UNL     1     146.887 168.149 184.879  0.00  0.00    -0.060 C 
ATOM     81  H   UNL     1     146.239 168.844 184.337  0.00  0.00    +0.023 HD
ATOM     82  H   UNL     1     147.277 167.422 184.160  0.00  0.00    +0.023 HD
ATOM     83  H   UNL     1     147.729 168.737 185.250  0.00  0.00    +0.023 HD
ENDBRANCH  78  80
BRANCH  78  84
ATOM     84  C   UNL     1     144.847 168.259 186.382  0.00  0.00    -0.045 C 
ATOM     85  H   UNL     1     143.994 167.751 185.931  0.00  0.00    +0.027 HD
ATOM     86  H   UNL     1     144.701 168.227 187.469  0.00  0.00    +0.027 HD
BRANCH  84  87
ATOM     87  C   UNL     1     144.840 169.719 185.927  0.00  0.00    -0.015 C 
ATOM     88  H   UNL     1     144.557 169.801 184.872  0.00  0.00    +0.030 HD
ATOM     89  H   UNL     1     145.866 170.111 185.974  0.00  0.00    +0.030 HD
BRANCH  87  90
ATOM     90  C   UNL     1     143.930 170.638 186.768  0.00  0.00    +0.109 C 
ATOM     91  H   UNL     1     143.355 171.261 186.073  0.00  0.00    +0.074 HD
BRANCH  90  92
ATOM     92  C   UNL     1     144.612 171.567 187.831  0.00  0.00    +0.031 C 
ATOM     93  H   UNL     1     143.824 172.265 188.146  0.00  0.00    +0.037 HD
BRANCH  92  94
ATOM     94  C   UNL     1     145.707 172.425 187.185  0.00  0.00    -0.056 C 
ATOM     95  H   UNL     1     145.717 172.357 186.096  0.00  0.00    +0.023 HD
ATOM     96  H   UNL     1     145.597 173.480 187.454  0.00  0.00    +0.023 HD
ATOM     97  H   UNL     1     146.696 172.123 187.541  0.00  0.00    +0.023 HD
ENDBRANCH  92  94
BRANCH  92  98
ATOM     98  C   UNL     1     145.073 170.807 189.114  0.00  0.00    +0.115 C 
ATOM     99  H   UNL     1     144.667 169.791 189.073  0.00  0.00    +0.074 HD
BRANCH  98 100
ATOM    100  C   UNL     1     146.606 170.702 189.381  0.00  0.00    +0.013 C 
ATOM    101  H   UNL     1     147.101 171.411 188.700  0.00  0.00    +0.038 HD
BRANCH 100 102
ATOM    102  C   UNL     1     147.207 169.344 189.000  0.00  0.00    -0.056 C 
ATOM    103  H   UNL     1     146.464 168.664 188.572  0.00  0.00    +0.024 HD
ATOM    104  H   UNL     1     148.013 169.467 188.271  0.00  0.00    +0.024 HD
ATOM    105  H   UNL     1     147.632 168.850 189.882  0.00  0.00    +0.024 HD
ENDBRANCH 100 102
BRANCH 100 106
ATOM    106  C   UNL     1     146.995 171.110 190.787  0.00  0.00    -0.064 C 
ATOM    107  C   UNL     1     147.868 172.102 191.016  0.00  0.00    -0.005 C 
ATOM    108  H   UNL     1     146.534 170.558 191.597  0.00  0.00    +0.059 HD
ATOM    109  H   UNL     1     148.301 172.622 190.158  0.00  0.00    +0.078 HD
BRANCH 107 110
ATOM    110  N   UNL     1     148.301 172.584 192.243  0.00  0.00    -0.284 N 
ATOM    111  C   UNL     1     149.434 172.154 192.918  0.00  0.00    +0.206 C 
ATOM    112  O   UNL     1     149.832 172.566 194.005  0.00  0.00    -0.279 OA
ATOM    113  H   UNL     1     149.989 171.362 192.398  0.00  0.00    +0.126 HD
BRANCH 110 114
ATOM    114  C   UNL     1     147.476 173.608 192.881  0.00  0.00    +0.007 C 
ATOM    115  H   UNL     1     146.611 173.875 192.268  0.00  0.00    +0.043 HD
ATOM    116  H   UNL     1     147.118 173.239 193.846  0.00  0.00    +0.043 HD
ATOM    117  H   UNL     1     148.088 174.501 193.034  0.00  0.00    +0.043 HD
ENDBRANCH 110 114
ENDBRANCH 107 110
ENDBRANCH 100 106
ENDBRANCH  98 100
BRANCH  98 118
ATOM    118  O   UNL     1     144.483 171.490 190.255  0.00  0.00    -0.461 OA
BRANCH 118 119
ATOM    119  C   UNL     1     143.448 170.865 190.882  0.00  0.00    +0.304 C 
ATOM    120  O   UNL     1     143.457 169.715 191.291  0.00  0.00    -0.251 OA
BRANCH 119 121
ATOM    121  C   UNL     1     142.285 171.802 191.005  0.00  0.00    +0.033 C 
ATOM    122  H   UNL     1     142.112 172.038 192.056  0.00  0.00    +0.034 HD
ATOM    123  H   UNL     1     141.389 171.318 190.606  0.00  0.00    +0.034 HD
ATOM    124  H   UNL     1     142.476 172.712 190.431  0.00  0.00    +0.034 HD
ENDBRANCH 119 121
ENDBRANCH 118 119
ENDBRANCH  98 118
ENDBRANCH  92  98
ENDBRANCH  90  92
BRANCH  90 125
ATOM    125  O   UNL     1     143.036 169.766 187.508  0.00  0.00    -0.459 OA
BRANCH 125 126
ATOM    126  C   UNL     1     141.689 169.947 187.339  0.00  0.00    +0.339 C 
ATOM    127  O   UNL     1     141.170 170.490 186.372  0.00  0.00    -0.248 OA
BRANCH 126 128
ATOM    128  C   UNL     1     140.941 169.316 188.530  0.00  0.00    +0.178 C 
ATOM    129  H   UNL     1     141.616 169.349 189.398  0.00  0.00    +0.074 HD
BRANCH 128 130
ATOM    130  C   UNL     1     139.704 170.175 188.851  0.00  0.00    +0.084 C 
ATOM    131  H   UNL     1     139.076 170.304 187.962  0.00  0.00    +0.059 HD
ATOM    132  H   UNL     1     140.032 171.164 189.191  0.00  0.00    +0.059 HD
BRANCH 130 133
ATOM    133  O   UNL     1     138.915 169.566 189.881  0.00  0.00    -0.380 OA
BRANCH 133 134
ATOM    134  C   UNL     1     138.760 170.420 191.005  0.00  0.00    +0.037 C 
ATOM    135  H   UNL     1     137.905 170.102 191.609  0.00  0.00    +0.052 HD
ATOM    136  H   UNL     1     139.670 170.426 191.613  0.00  0.00    +0.052 HD
ATOM    137  H   UNL     1     138.572 171.435 190.641  0.00  0.00    +0.052 HD
ENDBRANCH 133 134
ENDBRANCH 130 133
ENDBRANCH 128 130
BRANCH 128 138
ATOM    138  O   UNL     1     140.490 167.967 188.381  0.00  0.00    -0.366 OA
BRANCH 138 139
ATOM    139  C   UNL     1     140.859 167.382 187.141  0.00  0.00    +0.038 C 
ATOM    140  H   UNL     1     140.030 167.425 186.425  0.00  0.00    +0.052 HD
ATOM    141  H   UNL     1     141.187 166.349 187.279  0.00  0.00    +0.052 HD
ATOM    142  H   UNL     1     141.698 167.953 186.732  0.00  0.00    +0.052 HD
ENDBRANCH 138 139
ENDBRANCH 128 138
ENDBRANCH 126 128
ENDBRANCH 125 126
ENDBRANCH  90 125
ENDBRANCH  87  90
ENDBRANCH  84  87
ENDBRANCH  78  84
ENDBRANCH  76  78
BRANCH  76 143
ATOM    143  O   UNL     1     144.406 166.096 184.992  0.00  0.00    -0.379 OA
BRANCH 143 144
ATOM    144  C   UNL     1     144.387 165.557 183.677  0.00  0.00    +0.037 C 
ATOM    145  H   UNL     1     144.134 166.362 182.981  0.00  0.00    +0.052 HD
ATOM    146  H   UNL     1     145.369 165.160 183.406  0.00  0.00    +0.052 HD
ATOM    147  H   UNL     1     143.622 164.777 183.596  0.00  0.00    +0.052 HD
ENDBRANCH 143 144
ENDBRANCH  76 143
ENDBRANCH   1  76
TORSDOF 35
ENDMDL
MODEL 9
REMARK VINA RESULT:      -4.3      2.511      8.683
REMARK  Name = Mycalolide B_conf1
REMARK  35 active torsions:
REMARK  status: ('A' for Active; 'I' for Inactive)
REMARK    1  A    between atoms: C_1  and  C_2
REMARK    2  A    between atoms: C_3  and  O_72
REMARK    3  A    between atoms: C_22  and  O_70
REMARK    4  A    between atoms: C_23  and  C_69
REMARK    5  A    between atoms: C_29  and  O_68
REMARK    6  A    between atoms: C_34  and  C_35
REMARK    7  A    between atoms: C_35  and  C_36
REMARK    8  A    between atoms: C_36  and  C_37
REMARK    9  A    between atoms: C_36  and  O_66
REMARK   10  A    between atoms: C_37  and  C_38
REMARK   11  A    between atoms: C_37  and  C_39
REMARK   12  A    between atoms: C_39  and  C_40
REMARK   13  A    between atoms: C_40  and  C_41
REMARK   14  A    between atoms: C_41  and  C_42
REMARK   15  A    between atoms: C_41  and  O_57
REMARK   16  A    between atoms: C_42  and  C_43
REMARK   17  A    between atoms: C_42  and  C_44
REMARK   18  A    between atoms: C_44  and  C_45
REMARK   19  A    between atoms: C_44  and  O_53
REMARK   20  A    between atoms: C_45  and  C_46
REMARK   21  A    between atoms: C_45  and  C_47
REMARK   22  A    between atoms: C_48  and  N_49
REMARK   23  A    between atoms: N_49  and  C_50
REMARK   24  A    between atoms: O_53  and  C_54
REMARK   25  A    between atoms: C_54  and  C_56
REMARK   26  A    between atoms: O_57  and  C_58
REMARK   27  A    between atoms: C_58  and  C_60
REMARK   28  A    between atoms: C_60  and  C_61
REMARK   29  A    between atoms: C_60  and  O_64
REMARK   30  A    between atoms: C_61  and  O_62
REMARK   31  A    between atoms: O_62  and  C_63
REMARK   32  A    between atoms: O_64  and  C_65
REMARK   33  A    between atoms: O_66  and  C_67
REMARK   34  A    between atoms: O_70  and  C_71
REMARK   35  A    between atoms: O_72  and  C_73
REMARK                            x       y       z     vdW  Elec       q    Type
REMARK                         _______ _______ _______ _____ _____    ______ ____
ROOT
ATOM      1  C   UNL     1     148.098 165.183 185.130  0.00  0.00    +0.011 C 
ATOM      2  H   UNL     1     148.599 165.603 184.247  0.00  0.00    +0.033 HD
ATOM      3  H   UNL     1     147.253 164.613 184.730  0.00  0.00    +0.033 HD
ENDROOT
BRANCH   1  36
ATOM      4  C   UNL     1     149.439 162.960 185.066  0.00  0.00    +0.020 C 
ATOM      5  C   UNL     1     148.597 161.681 185.359  0.00  0.00    +0.068 C 
ATOM      6  C   UNL     1     147.054 161.782 185.200  0.00  0.00    -0.008 C 
ATOM      7  C   UNL     1     146.337 162.479 186.322  0.00  0.00    -0.077 C 
ATOM      8  C   UNL     1     145.110 163.021 186.252  0.00  0.00    -0.003 C 
ATOM      9  C   UNL     1     144.565 163.683 187.389  0.00  0.00    +0.220 A 
ATOM     10  N   UNL     1     145.256 164.102 188.439  0.00  0.00    -0.205 NA
ATOM     11  C   UNL     1     144.341 164.667 189.288  0.00  0.00    +0.164 A 
ATOM     12  C   UNL     1     143.097 164.602 188.723  0.00  0.00    +0.125 A 
ATOM     13  O   UNL     1     143.221 163.999 187.507  0.00  0.00    -0.443 OA
ATOM     14  C   UNL     1     144.700 165.273 190.677  0.00  0.00    +0.250 A 
ATOM     15  N   UNL     1     145.938 165.324 191.128  0.00  0.00    -0.203 NA
ATOM     16  C   UNL     1     145.832 165.903 192.367  0.00  0.00    +0.164 A 
ATOM     17  C   UNL     1     144.519 166.189 192.632  0.00  0.00    +0.125 A 
ATOM     18  O   UNL     1     143.777 165.799 191.555  0.00  0.00    -0.442 OA
ATOM     19  C   UNL     1     147.033 166.185 193.322  0.00  0.00    +0.249 A 
ATOM     20  N   UNL     1     148.288 165.906 193.008  0.00  0.00    -0.210 NA
ATOM     21  C   UNL     1     149.029 166.331 194.088  0.00  0.00    +0.109 A 
ATOM     22  C   UNL     1     148.176 166.849 195.036  0.00  0.00    +0.118 A 
ATOM     23  O   UNL     1     146.902 166.760 194.566  0.00  0.00    -0.442 OA
ATOM     24  C   UNL     1     150.527 166.254 194.087  0.00  0.00    +0.113 C 
ATOM     25  C   UNL     1     151.110 166.903 192.812  0.00  0.00    +0.051 C 
ATOM     26  C   UNL     1     152.630 166.863 192.887  0.00  0.00    +0.161 C 
ATOM     27  O   UNL     1     153.243 167.191 193.903  0.00  0.00    -0.292 OA
ATOM     28  C   UNL     1     153.427 166.477 191.685  0.00  0.00    -0.023 C 
ATOM     29  C   UNL     1     152.997 166.580 190.416  0.00  0.00    -0.078 C 
ATOM     30  C   UNL     1     153.843 166.221 189.223  0.00  0.00    -0.008 C 
ATOM     31  C   UNL     1     153.206 165.147 188.320  0.00  0.00    +0.069 C 
ATOM     32  C   UNL     1     152.061 165.702 187.463  0.00  0.00    +0.071 C 
ATOM     33  C   UNL     1     150.989 164.664 187.231  0.00  0.00    +0.310 C 
ATOM     34  O   UNL     1     150.759 163.717 187.968  0.00  0.00    -0.251 OA
ATOM     35  O   UNL     1     150.263 164.997 186.126  0.00  0.00    -0.461 OA
ATOM     36  C   UNL     1     149.051 164.232 185.881  0.00  0.00    +0.110 C 
ATOM     37  H   UNL     1     150.471 162.721 185.351  0.00  0.00    +0.036 HD
ATOM     38  H   UNL     1     148.917 160.909 184.646  0.00  0.00    +0.060 HD
ATOM     39  H   UNL     1     146.800 162.226 184.233  0.00  0.00    +0.033 HD
ATOM     40  H   UNL     1     146.671 160.751 185.191  0.00  0.00    +0.033 HD
ATOM     41  H   UNL     1     146.867 162.506 187.278  0.00  0.00    +0.057 HD
ATOM     42  H   UNL     1     144.513 162.971 185.350  0.00  0.00    +0.067 HD
ATOM     43  H   UNL     1     142.104 164.913 189.013  0.00  0.00    +0.105 HD
ATOM     44  H   UNL     1     143.986 166.629 193.458  0.00  0.00    +0.105 HD
ATOM     45  H   UNL     1     148.296 167.299 196.011  0.00  0.00    +0.105 HD
ATOM     46  H   UNL     1     150.922 166.770 194.973  0.00  0.00    +0.067 HD
ATOM     47  H   UNL     1     150.780 166.322 191.944  0.00  0.00    +0.041 HD
ATOM     48  H   UNL     1     154.435 166.143 191.916  0.00  0.00    +0.065 HD
ATOM     49  H   UNL     1     152.003 166.962 190.198  0.00  0.00    +0.057 HD
ATOM     50  H   UNL     1     154.037 167.127 188.635  0.00  0.00    +0.033 HD
ATOM     51  H   UNL     1     154.830 165.872 189.552  0.00  0.00    +0.033 HD
ATOM     52  H   UNL     1     152.887 164.300 188.938  0.00  0.00    +0.060 HD
ATOM     53  H   UNL     1     152.445 166.035 186.493  0.00  0.00    +0.040 HD
ATOM     54  H   UNL     1     151.560 166.545 187.949  0.00  0.00    +0.040 HD
ATOM     55  H   UNL     1     148.613 163.964 186.846  0.00  0.00    +0.074 HD
BRANCH   4  56
ATOM     56  C   UNL     1     149.525 163.206 183.551  0.00  0.00    -0.057 C 
ATOM     57  H   UNL     1     150.550 163.393 183.214  0.00  0.00    +0.023 HD
ATOM     58  H   UNL     1     149.127 162.354 182.992  0.00  0.00    +0.023 HD
ATOM     59  H   UNL     1     148.929 164.083 183.271  0.00  0.00    +0.023 HD
ENDBRANCH   4  56
BRANCH  25  60
ATOM     60  C   UNL     1     150.695 168.367 192.644  0.00  0.00    -0.053 C 
ATOM     61  H   UNL     1     151.498 168.962 192.195  0.00  0.00    +0.024 HD
ATOM     62  H   UNL     1     150.453 168.818 193.610  0.00  0.00    +0.024 HD
ATOM     63  H   UNL     1     149.819 168.460 191.995  0.00  0.00    +0.024 HD
ENDBRANCH  25  60
BRANCH  31  64
ATOM     64  O   UNL     1     154.215 164.659 187.425  0.00  0.00    -0.391 OA
ATOM     65  H   UNL     1     155.011 165.210 187.552  0.00  0.00    +0.210 HD
ENDBRANCH  31  64
BRANCH  24  66
ATOM     66  O   UNL     1     150.977 164.885 194.107  0.00  0.00    -0.373 OA
BRANCH  66  67
ATOM     67  C   UNL     1     151.007 164.327 195.413  0.00  0.00    +0.037 C 
ATOM     68  H   UNL     1     150.048 163.869 195.668  0.00  0.00    +0.052 HD
ATOM     69  H   UNL     1     151.270 165.094 196.149  0.00  0.00    +0.052 HD
ATOM     70  H   UNL     1     151.777 163.552 195.437  0.00  0.00    +0.052 HD
ENDBRANCH  66  67
ENDBRANCH  24  66
BRANCH   5  71
ATOM     71  O   UNL     1     148.847 161.168 186.678  0.00  0.00    -0.379 OA
BRANCH  71  72
ATOM     72  C   UNL     1     148.942 159.754 186.761  0.00  0.00    +0.037 C 
ATOM     73  H   UNL     1     149.396 159.498 187.724  0.00  0.00    +0.052 HD
ATOM     74  H   UNL     1     147.950 159.293 186.716  0.00  0.00    +0.052 HD
ATOM     75  H   UNL     1     149.579 159.349 185.973  0.00  0.00    +0.052 HD
ENDBRANCH  71  72
ENDBRANCH   5  71
ENDBRANCH   1  36
BRANCH   1  76
ATOM     76  C   UNL     1     147.511 166.351 185.950  0.00  0.00    +0.064 C 
ATOM     77  H   UNL     1     146.989 165.938 186.822  0.00  0.00    +0.060 HD
BRANCH  76  78
ATOM     78  C   UNL     1     148.510 167.426 186.471  0.00  0.00    -0.017 C 
ATOM     79  H   UNL     1     149.530 167.062 186.316  0.00  0.00    +0.032 HD
BRANCH  78  80
ATOM     80  C   UNL     1     148.346 168.774 185.750  0.00  0.00    -0.060 C 
ATOM     81  H   UNL     1     147.902 169.522 186.414  0.00  0.00    +0.023 HD
ATOM     82  H   UNL     1     147.702 168.679 184.871  0.00  0.00    +0.023 HD
ATOM     83  H   UNL     1     149.303 169.185 185.420  0.00  0.00    +0.023 HD
ENDBRANCH  78  80
BRANCH  78  84
ATOM     84  C   UNL     1     148.295 167.599 187.997  0.00  0.00    -0.045 C 
ATOM     85  H   UNL     1     148.887 166.835 188.500  0.00  0.00    +0.027 HD
ATOM     86  H   UNL     1     148.696 168.572 188.308  0.00  0.00    +0.027 HD
BRANCH  84  87
ATOM     87  C   UNL     1     146.848 167.488 188.475  0.00  0.00    -0.015 C 
ATOM     88  H   UNL     1     146.755 166.754 189.282  0.00  0.00    +0.030 HD
ATOM     89  H   UNL     1     146.233 167.083 187.658  0.00  0.00    +0.030 HD
BRANCH  87  90
ATOM     90  C   UNL     1     146.228 168.825 188.932  0.00  0.00    +0.109 C 
ATOM     91  H   UNL     1     145.615 168.620 189.818  0.00  0.00    +0.074 HD
BRANCH  90  92
ATOM     92  C   UNL     1     145.366 169.623 187.895  0.00  0.00    +0.031 C 
ATOM     93  H   UNL     1     145.379 169.010 186.984  0.00  0.00    +0.037 HD
BRANCH  92  94
ATOM     94  C   UNL     1     146.043 170.949 187.526  0.00  0.00    -0.056 C 
ATOM     95  H   UNL     1     145.687 171.362 186.581  0.00  0.00    +0.023 HD
ATOM     96  H   UNL     1     145.888 171.705 188.302  0.00  0.00    +0.023 HD
ATOM     97  H   UNL     1     147.125 170.820 187.440  0.00  0.00    +0.023 HD
ENDBRANCH  92  94
BRANCH  92  98
ATOM     98  C   UNL     1     143.869 169.768 188.314  0.00  0.00    +0.115 C 
ATOM     99  H   UNL     1     143.832 170.314 189.262  0.00  0.00    +0.074 HD
BRANCH  98 100
ATOM    100  C   UNL     1     142.903 170.472 187.313  0.00  0.00    +0.013 C 
ATOM    101  H   UNL     1     143.495 171.220 186.765  0.00  0.00    +0.038 HD
BRANCH 100 102
ATOM    102  C   UNL     1     141.804 171.297 187.993  0.00  0.00    -0.056 C 
ATOM    103  H   UNL     1     141.788 172.336 187.648  0.00  0.00    +0.024 HD
ATOM    104  H   UNL     1     140.819 170.862 187.803  0.00  0.00    +0.024 HD
ATOM    105  H   UNL     1     141.953 171.316 189.079  0.00  0.00    +0.024 HD
ENDBRANCH 100 102
BRANCH 100 106
ATOM    106  C   UNL     1     142.331 169.529 186.274  0.00  0.00    -0.064 C 
ATOM    107  C   UNL     1     142.769 169.529 185.006  0.00  0.00    -0.005 C 
ATOM    108  H   UNL     1     141.549 168.858 186.608  0.00  0.00    +0.059 HD
ATOM    109  H   UNL     1     143.560 170.231 184.730  0.00  0.00    +0.078 HD
BRANCH 107 110
ATOM    110  N   UNL     1     142.346 168.718 183.964  0.00  0.00    -0.284 N 
ATOM    111  C   UNL     1     141.303 167.806 184.030  0.00  0.00    +0.206 C 
ATOM    112  O   UNL     1     140.916 167.077 183.119  0.00  0.00    -0.279 OA
ATOM    113  H   UNL     1     140.814 167.758 185.012  0.00  0.00    +0.126 HD
BRANCH 110 114
ATOM    114  C   UNL     1     143.083 168.818 182.706  0.00  0.00    +0.007 C 
ATOM    115  H   UNL     1     143.807 169.637 182.722  0.00  0.00    +0.043 HD
ATOM    116  H   UNL     1     143.619 167.884 182.521  0.00  0.00    +0.043 HD
ATOM    117  H   UNL     1     142.368 168.996 181.898  0.00  0.00    +0.043 HD
ENDBRANCH 110 114
ENDBRANCH 107 110
ENDBRANCH 100 106
ENDBRANCH  98 100
BRANCH  98 118
ATOM    118  O   UNL     1     143.353 168.426 188.539  0.00  0.00    -0.461 OA
BRANCH 118 119
ATOM    119  C   UNL     1     142.506 168.258 189.591  0.00  0.00    +0.304 C 
ATOM    120  O   UNL     1     141.506 167.557 189.592  0.00  0.00    -0.251 OA
BRANCH 119 121
ATOM    121  C   UNL     1     142.983 169.061 190.764  0.00  0.00    +0.033 C 
ATOM    122  H   UNL     1     143.901 168.623 191.161  0.00  0.00    +0.034 HD
ATOM    123  H   UNL     1     142.221 169.040 191.548  0.00  0.00    +0.034 HD
ATOM    124  H   UNL     1     143.148 170.098 190.464  0.00  0.00    +0.034 HD
ENDBRANCH 119 121
ENDBRANCH 118 119
ENDBRANCH  98 118
ENDBRANCH  92  98
ENDBRANCH  90  92
BRANCH  90 125
ATOM    125  O   UNL     1     147.338 169.691 189.287  0.00  0.00    -0.459 OA
BRANCH 125 126
ATOM    126  C   UNL     1     147.488 170.020 190.608  0.00  0.00    +0.339 C 
ATOM    127  O   UNL     1     147.415 169.230 191.541  0.00  0.00    -0.248 OA
BRANCH 126 128
ATOM    128  C   UNL     1     147.811 171.523 190.721  0.00  0.00    +0.178 C 
ATOM    129  H   UNL     1     147.899 171.919 189.698  0.00  0.00    +0.074 HD
BRANCH 128 130
ATOM    130  C   UNL     1     146.633 172.234 191.412  0.00  0.00    +0.084 C 
ATOM    131  H   UNL     1     146.587 173.289 191.121  0.00  0.00    +0.059 HD
ATOM    132  H   UNL     1     146.767 172.179 192.498  0.00  0.00    +0.059 HD
BRANCH 130 133
ATOM    133  O   UNL     1     145.389 171.612 191.065  0.00  0.00    -0.380 OA
BRANCH 133 134
ATOM    134  C   UNL     1     144.306 172.530 191.108  0.00  0.00    +0.037 C 
ATOM    135  H   UNL     1     144.370 173.152 192.006  0.00  0.00    +0.052 HD
ATOM    136  H   UNL     1     144.297 173.159 190.213  0.00  0.00    +0.052 HD
ATOM    137  H   UNL     1     143.373 171.958 191.147  0.00  0.00    +0.052 HD
ENDBRANCH 133 134
ENDBRANCH 130 133
ENDBRANCH 128 130
BRANCH 128 138
ATOM    138  O   UNL     1     148.998 171.888 191.432  0.00  0.00    -0.366 OA
BRANCH 138 139
ATOM    139  C   UNL     1     148.839 173.041 192.243  0.00  0.00    +0.038 C 
ATOM    140  H   UNL     1     149.315 173.914 191.783  0.00  0.00    +0.052 HD
ATOM    141  H   UNL     1     149.243 172.873 193.245  0.00  0.00    +0.052 HD
ATOM    142  H   UNL     1     147.768 173.244 192.341  0.00  0.00    +0.052 HD
ENDBRANCH 138 139
ENDBRANCH 128 138
ENDBRANCH 126 128
ENDBRANCH 125 126
ENDBRANCH  90 125
ENDBRANCH  87  90
ENDBRANCH  84  87
ENDBRANCH  78  84
ENDBRANCH  76  78
BRANCH  76 143
ATOM    143  O   UNL     1     146.564 167.034 185.100  0.00  0.00    -0.379 OA
BRANCH 143 144
ATOM    144  C   UNL     1     145.210 166.691 185.362  0.00  0.00    +0.037 C 
ATOM    145  H   UNL     1     144.712 167.565 185.791  0.00  0.00    +0.052 HD
ATOM    146  H   UNL     1     144.693 166.415 184.438  0.00  0.00    +0.052 HD
ATOM    147  H   UNL     1     145.157 165.872 186.089  0.00  0.00    +0.052 HD
ENDBRANCH 143 144
ENDBRANCH  76 143
ENDBRANCH   1  76
TORSDOF 35
ENDMDL
MODEL 10
REMARK VINA RESULT:      -4.3      2.619      8.554
REMARK  Name = Mycalolide B_conf1
REMARK  35 active torsions:
REMARK  status: ('A' for Active; 'I' for Inactive)
REMARK    1  A    between atoms: C_1  and  C_2
REMARK    2  A    between atoms: C_3  and  O_72
REMARK    3  A    between atoms: C_22  and  O_70
REMARK    4  A    between atoms: C_23  and  C_69
REMARK    5  A    between atoms: C_29  and  O_68
REMARK    6  A    between atoms: C_34  and  C_35
REMARK    7  A    between atoms: C_35  and  C_36
REMARK    8  A    between atoms: C_36  and  C_37
REMARK    9  A    between atoms: C_36  and  O_66
REMARK   10  A    between atoms: C_37  and  C_38
REMARK   11  A    between atoms: C_37  and  C_39
REMARK   12  A    between atoms: C_39  and  C_40
REMARK   13  A    between atoms: C_40  and  C_41
REMARK   14  A    between atoms: C_41  and  C_42
REMARK   15  A    between atoms: C_41  and  O_57
REMARK   16  A    between atoms: C_42  and  C_43
REMARK   17  A    between atoms: C_42  and  C_44
REMARK   18  A    between atoms: C_44  and  C_45
REMARK   19  A    between atoms: C_44  and  O_53
REMARK   20  A    between atoms: C_45  and  C_46
REMARK   21  A    between atoms: C_45  and  C_47
REMARK   22  A    between atoms: C_48  and  N_49
REMARK   23  A    between atoms: N_49  and  C_50
REMARK   24  A    between atoms: O_53  and  C_54
REMARK   25  A    between atoms: C_54  and  C_56
REMARK   26  A    between atoms: O_57  and  C_58
REMARK   27  A    between atoms: C_58  and  C_60
REMARK   28  A    between atoms: C_60  and  C_61
REMARK   29  A    between atoms: C_60  and  O_64
REMARK   30  A    between atoms: C_61  and  O_62
REMARK   31  A    between atoms: O_62  and  C_63
REMARK   32  A    between atoms: O_64  and  C_65
REMARK   33  A    between atoms: O_66  and  C_67
REMARK   34  A    between atoms: O_70  and  C_71
REMARK   35  A    between atoms: O_72  and  C_73
REMARK                            x       y       z     vdW  Elec       q    Type
REMARK                         _______ _______ _______ _____ _____    ______ ____
ROOT
ATOM      1  C   UNL     1     148.329 165.007 185.079  0.00  0.00    +0.011 C 
ATOM      2  H   UNL     1     148.934 165.610 184.390  0.00  0.00    +0.033 HD
ATOM      3  H   UNL     1     147.660 164.428 184.434  0.00  0.00    +0.033 HD
ENDROOT
BRANCH   1  36
ATOM      4  C   UNL     1     149.602 162.744 185.107  0.00  0.00    +0.020 C 
ATOM      5  C   UNL     1     148.714 161.498 185.406  0.00  0.00    +0.068 C 
ATOM      6  C   UNL     1     147.180 161.641 185.199  0.00  0.00    -0.008 C 
ATOM      7  C   UNL     1     146.452 162.386 186.283  0.00  0.00    -0.077 C 
ATOM      8  C   UNL     1     145.245 162.963 186.164  0.00  0.00    -0.003 C 
ATOM      9  C   UNL     1     144.689 163.669 187.269  0.00  0.00    +0.220 A 
ATOM     10  N   UNL     1     145.362 164.093 188.329  0.00  0.00    -0.205 NA
ATOM     11  C   UNL     1     144.440 164.705 189.136  0.00  0.00    +0.164 A 
ATOM     12  C   UNL     1     143.211 164.664 188.537  0.00  0.00    +0.125 A 
ATOM     13  O   UNL     1     143.352 164.027 187.340  0.00  0.00    -0.443 OA
ATOM     14  C   UNL     1     144.778 165.334 190.521  0.00  0.00    +0.250 A 
ATOM     15  N   UNL     1     146.004 165.359 191.007  0.00  0.00    -0.203 NA
ATOM     16  C   UNL     1     145.880 165.971 192.228  0.00  0.00    +0.164 A 
ATOM     17  C   UNL     1     144.569 166.303 192.448  0.00  0.00    +0.125 A 
ATOM     18  O   UNL     1     143.847 165.908 191.359  0.00  0.00    -0.442 OA
ATOM     19  C   UNL     1     147.061 166.241 193.211  0.00  0.00    +0.249 A 
ATOM     20  N   UNL     1     148.316 165.916 192.940  0.00  0.00    -0.210 NA
ATOM     21  C   UNL     1     149.038 166.346 194.031  0.00  0.00    +0.109 A 
ATOM     22  C   UNL     1     148.175 166.912 194.942  0.00  0.00    +0.118 A 
ATOM     23  O   UNL     1     146.912 166.849 194.436  0.00  0.00    -0.442 OA
ATOM     24  C   UNL     1     150.533 166.224 194.076  0.00  0.00    +0.113 C 
ATOM     25  C   UNL     1     151.171 166.824 192.804  0.00  0.00    +0.051 C 
ATOM     26  C   UNL     1     152.686 166.741 192.924  0.00  0.00    +0.161 C 
ATOM     27  O   UNL     1     153.279 167.075 193.949  0.00  0.00    -0.292 OA
ATOM     28  C   UNL     1     153.506 166.301 191.755  0.00  0.00    -0.023 C 
ATOM     29  C   UNL     1     153.115 166.386 190.472  0.00  0.00    -0.078 C 
ATOM     30  C   UNL     1     153.984 165.973 189.313  0.00  0.00    -0.008 C 
ATOM     31  C   UNL     1     153.340 164.897 188.418  0.00  0.00    +0.069 C 
ATOM     32  C   UNL     1     152.238 165.464 187.515  0.00  0.00    +0.071 C 
ATOM     33  C   UNL     1     151.141 164.454 187.277  0.00  0.00    +0.310 C 
ATOM     34  O   UNL     1     150.861 163.532 188.028  0.00  0.00    -0.251 OA
ATOM     35  O   UNL     1     150.458 164.780 186.143  0.00  0.00    -0.461 OA
ATOM     36  C   UNL     1     149.231 164.047 185.880  0.00  0.00    +0.110 C 
ATOM     37  H   UNL     1     150.618 162.481 185.428  0.00  0.00    +0.036 HD
ATOM     38  H   UNL     1     149.030 160.700 184.721  0.00  0.00    +0.060 HD
ATOM     39  H   UNL     1     146.967 162.069 184.215  0.00  0.00    +0.033 HD
ATOM     40  H   UNL     1     146.766 160.623 185.203  0.00  0.00    +0.033 HD
ATOM     41  H   UNL     1     146.956 162.421 187.254  0.00  0.00    +0.057 HD
ATOM     42  H   UNL     1     144.673 162.909 185.246  0.00  0.00    +0.067 HD
ATOM     43  H   UNL     1     142.221 165.011 188.790  0.00  0.00    +0.105 HD
ATOM     44  H   UNL     1     144.026 166.779 193.247  0.00  0.00    +0.105 HD
ATOM     45  H   UNL     1     148.280 167.382 195.909  0.00  0.00    +0.105 HD
ATOM     46  H   UNL     1     150.918 166.750 194.961  0.00  0.00    +0.067 HD
ATOM     47  H   UNL     1     150.848 166.232 191.941  0.00  0.00    +0.041 HD
ATOM     48  H   UNL     1     154.496 165.944 192.023  0.00  0.00    +0.065 HD
ATOM     49  H   UNL     1     152.140 166.792 190.217  0.00  0.00    +0.057 HD
ATOM     50  H   UNL     1     154.221 166.858 188.710  0.00  0.00    +0.033 HD
ATOM     51  H   UNL     1     154.950 165.603 189.680  0.00  0.00    +0.033 HD
ATOM     52  H   UNL     1     152.978 164.075 189.046  0.00  0.00    +0.060 HD
ATOM     53  H   UNL     1     152.659 165.762 186.549  0.00  0.00    +0.040 HD
ATOM     54  H   UNL     1     151.748 166.334 187.966  0.00  0.00    +0.040 HD
ATOM     55  H   UNL     1     148.757 163.815 186.838  0.00  0.00    +0.074 HD
BRANCH   4  56
ATOM     56  C   UNL     1     149.739 162.950 183.590  0.00  0.00    -0.057 C 
ATOM     57  H   UNL     1     150.665 162.524 183.191  0.00  0.00    +0.023 HD
ATOM     58  H   UNL     1     148.894 162.505 183.056  0.00  0.00    +0.023 HD
ATOM     59  H   UNL     1     149.747 164.021 183.348  0.00  0.00    +0.023 HD
ENDBRANCH   4  56
BRANCH  25  60
ATOM     60  C   UNL     1     150.806 168.295 192.589  0.00  0.00    -0.053 C 
ATOM     61  H   UNL     1     151.455 168.764 191.842  0.00  0.00    +0.024 HD
ATOM     62  H   UNL     1     150.911 168.864 193.517  0.00  0.00    +0.024 HD
ATOM     63  H   UNL     1     149.775 168.402 192.237  0.00  0.00    +0.024 HD
ENDBRANCH  25  60
BRANCH  31  64
ATOM     64  O   UNL     1     154.359 164.357 187.565  0.00  0.00    -0.391 OA
ATOM     65  H   UNL     1     154.012 164.366 186.653  0.00  0.00    +0.210 HD
ENDBRANCH  31  64
BRANCH  24  66
ATOM     66  O   UNL     1     150.940 164.843 194.141  0.00  0.00    -0.373 OA
BRANCH  66  67
ATOM     67  C   UNL     1     151.007 164.345 195.470  0.00  0.00    +0.037 C 
ATOM     68  H   UNL     1     151.750 163.547 195.555  0.00  0.00    +0.052 HD
ATOM     69  H   UNL     1     150.024 163.986 195.793  0.00  0.00    +0.052 HD
ATOM     70  H   UNL     1     151.305 165.165 196.128  0.00  0.00    +0.052 HD
ENDBRANCH  66  67
ENDBRANCH  24  66
BRANCH   5  71
ATOM     71  O   UNL     1     148.910 161.011 186.744  0.00  0.00    -0.379 OA
BRANCH  71  72
ATOM     72  C   UNL     1     148.873 159.598 186.875  0.00  0.00    +0.037 C 
ATOM     73  H   UNL     1     148.035 159.337 187.530  0.00  0.00    +0.052 HD
ATOM     74  H   UNL     1     148.712 159.119 185.904  0.00  0.00    +0.052 HD
ATOM     75  H   UNL     1     149.786 159.214 187.334  0.00  0.00    +0.052 HD
ENDBRANCH  71  72
ENDBRANCH   5  71
ENDBRANCH   1  36
BRANCH   1  76
ATOM     76  C   UNL     1     147.446 165.965 185.906  0.00  0.00    +0.064 C 
ATOM     77  H   UNL     1     146.755 165.367 186.514  0.00  0.00    +0.060 HD
BRANCH  76  78
ATOM     78  C   UNL     1     148.174 166.953 186.864  0.00  0.00    -0.017 C 
ATOM     79  H   UNL     1     149.087 166.476 187.234  0.00  0.00    +0.032 HD
BRANCH  78  80
ATOM     80  C   UNL     1     148.546 168.274 186.169  0.00  0.00    -0.060 C 
ATOM     81  H   UNL     1     148.035 169.120 186.638  0.00  0.00    +0.023 HD
ATOM     82  H   UNL     1     148.270 168.257 185.111  0.00  0.00    +0.023 HD
ATOM     83  H   UNL     1     149.616 168.486 186.232  0.00  0.00    +0.023 HD
ENDBRANCH  78  80
BRANCH  78  84
ATOM     84  C   UNL     1     147.255 167.224 188.083  0.00  0.00    -0.045 C 
ATOM     85  H   UNL     1     146.491 166.447 188.097  0.00  0.00    +0.027 HD
ATOM     86  H   UNL     1     147.839 167.116 189.005  0.00  0.00    +0.027 HD
BRANCH  84  87
ATOM     87  C   UNL     1     146.563 168.588 188.096  0.00  0.00    -0.015 C 
ATOM     88  H   UNL     1     145.593 168.542 187.590  0.00  0.00    +0.030 HD
ATOM     89  H   UNL     1     147.157 169.293 187.498  0.00  0.00    +0.030 HD
BRANCH  87  90
ATOM     90  C   UNL     1     146.372 169.186 189.505  0.00  0.00    +0.109 C 
ATOM     91  H   UNL     1     146.356 168.355 190.219  0.00  0.00    +0.074 HD
BRANCH  90  92
ATOM     92  C   UNL     1     145.113 170.087 189.751  0.00  0.00    +0.031 C 
ATOM     93  H   UNL     1     145.411 170.779 190.551  0.00  0.00    +0.037 HD
BRANCH  92  94
ATOM     94  C   UNL     1     143.951 169.260 190.315  0.00  0.00    -0.056 C 
ATOM     95  H   UNL     1     143.823 169.380 191.392  0.00  0.00    +0.023 HD
ATOM     96  H   UNL     1     143.004 169.523 189.833  0.00  0.00    +0.023 HD
ATOM     97  H   UNL     1     144.103 168.195 190.121  0.00  0.00    +0.023 HD
ENDBRANCH  92  94
BRANCH  92  98
ATOM     98  C   UNL     1     144.730 170.967 188.520  0.00  0.00    +0.115 C 
ATOM     99  H   UNL     1     144.939 170.393 187.612  0.00  0.00    +0.074 HD
BRANCH  98 100
ATOM    100  C   UNL     1     143.262 171.488 188.433  0.00  0.00    +0.013 C 
ATOM    101  H   UNL     1     142.625 170.743 188.933  0.00  0.00    +0.038 HD
BRANCH 100 102
ATOM    102  C   UNL     1     142.712 171.543 187.003  0.00  0.00    -0.056 C 
ATOM    103  H   UNL     1     143.269 172.239 186.368  0.00  0.00    +0.024 HD
ATOM    104  H   UNL     1     142.748 170.556 186.535  0.00  0.00    +0.024 HD
ATOM    105  H   UNL     1     141.665 171.869 187.005  0.00  0.00    +0.024 HD
ENDBRANCH 100 102
BRANCH 100 106
ATOM    106  C   UNL     1     143.051 172.798 189.163  0.00  0.00    -0.064 C 
ATOM    107  C   UNL     1     142.400 172.854 190.335  0.00  0.00    -0.005 C 
ATOM    108  H   UNL     1     143.450 173.687 188.689  0.00  0.00    +0.059 HD
ATOM    109  H   UNL     1     142.019 171.923 190.762  0.00  0.00    +0.078 HD
BRANCH 107 110
ATOM    110  N   UNL     1     142.149 173.975 191.112  0.00  0.00    -0.284 N 
ATOM    111  C   UNL     1     141.999 173.975 192.491  0.00  0.00    +0.206 C 
ATOM    112  O   UNL     1     141.773 174.956 193.197  0.00  0.00    -0.279 OA
ATOM    113  H   UNL     1     142.089 172.982 192.950  0.00  0.00    +0.126 HD
BRANCH 110 114
ATOM    114  C   UNL     1     142.003 175.248 190.411  0.00  0.00    +0.007 C 
ATOM    115  H   UNL     1     141.843 175.108 189.339  0.00  0.00    +0.043 HD
ATOM    116  H   UNL     1     141.149 175.795 190.821  0.00  0.00    +0.043 HD
ATOM    117  H   UNL     1     142.916 175.832 190.557  0.00  0.00    +0.043 HD
ENDBRANCH 110 114
ENDBRANCH 107 110
ENDBRANCH 100 106
ENDBRANCH  98 100
BRANCH  98 118
ATOM    118  O   UNL     1     145.601 172.133 188.536  0.00  0.00    -0.461 OA
BRANCH 118 119
ATOM    119  C   UNL     1     146.077 172.564 187.336  0.00  0.00    +0.304 C 
ATOM    120  O   UNL     1     146.390 173.714 187.069  0.00  0.00    -0.251 OA
BRANCH 119 121
ATOM    121  C   UNL     1     146.169 171.414 186.380  0.00  0.00    +0.033 C 
ATOM    122  H   UNL     1     146.773 171.699 185.517  0.00  0.00    +0.034 HD
ATOM    123  H   UNL     1     145.166 171.154 186.031  0.00  0.00    +0.034 HD
ATOM    124  H   UNL     1     146.600 170.544 186.882  0.00  0.00    +0.034 HD
ENDBRANCH 119 121
ENDBRANCH 118 119
ENDBRANCH  98 118
ENDBRANCH  92  98
ENDBRANCH  90  92
BRANCH  90 125
ATOM    125  O   UNL     1     147.528 170.030 189.753  0.00  0.00    -0.459 OA
BRANCH 125 126
ATOM    126  C   UNL     1     147.907 170.219 191.055  0.00  0.00    +0.339 C 
ATOM    127  O   UNL     1     147.647 169.458 191.979  0.00  0.00    -0.248 OA
BRANCH 126 128
ATOM    128  C   UNL     1     148.751 171.505 191.154  0.00  0.00    +0.178 C 
ATOM    129  H   UNL     1     149.240 171.654 190.181  0.00  0.00    +0.074 HD
BRANCH 128 130
ATOM    130  C   UNL     1     147.810 172.697 191.407  0.00  0.00    +0.084 C 
ATOM    131  H   UNL     1     147.694 173.304 190.502  0.00  0.00    +0.059 HD
ATOM    132  H   UNL     1     148.235 173.329 192.196  0.00  0.00    +0.059 HD
BRANCH 130 133
ATOM    133  O   UNL     1     146.515 172.245 191.821  0.00  0.00    -0.380 OA
BRANCH 133 134
ATOM    134  C   UNL     1     145.681 173.321 192.227  0.00  0.00    +0.037 C 
ATOM    135  H   UNL     1     145.204 173.093 193.185  0.00  0.00    +0.052 HD
ATOM    136  H   UNL     1     146.258 174.248 192.304  0.00  0.00    +0.052 HD
ATOM    137  H   UNL     1     144.900 173.453 191.471  0.00  0.00    +0.052 HD
ENDBRANCH 133 134
ENDBRANCH 130 133
ENDBRANCH 128 130
BRANCH 128 138
ATOM    138  O   UNL     1     149.765 171.548 192.162  0.00  0.00    -0.366 OA
BRANCH 138 139
ATOM    139  C   UNL     1     149.482 172.462 193.211  0.00  0.00    +0.038 C 
ATOM    140  H   UNL     1     150.331 173.130 193.389  0.00  0.00    +0.052 HD
ATOM    141  H   UNL     1     149.218 171.932 194.130  0.00  0.00    +0.052 HD
ATOM    142  H   UNL     1     148.622 173.068 192.911  0.00  0.00    +0.052 HD
ENDBRANCH 138 139
ENDBRANCH 128 138
ENDBRANCH 126 128
ENDBRANCH 125 126
ENDBRANCH  90 125
ENDBRANCH  87  90
ENDBRANCH  84  87
ENDBRANCH  78  84
ENDBRANCH  76  78
BRANCH  76 143
ATOM    143  O   UNL     1     146.693 166.766 184.969  0.00  0.00    -0.379 OA
BRANCH 143 144
ATOM    144  C   UNL     1     145.291 166.545 185.026  0.00  0.00    +0.037 C 
ATOM    145  H   UNL     1     144.957 166.728 186.051  0.00  0.00    +0.052 HD
ATOM    146  H   UNL     1     144.761 167.233 184.360  0.00  0.00    +0.052 HD
ATOM    147  H   UNL     1     145.057 165.506 184.766  0.00  0.00    +0.052 HD
ENDBRANCH 143 144
ENDBRANCH  76 143
ENDBRANCH   1  76
TORSDOF 35
ENDMDL
