MODEL 1
REMARK VINA RESULT:      -5.7      0.000      0.000
REMARK  Name = Mycalolide B_conf3
REMARK  35 active torsions:
REMARK  status: ('A' for Active; 'I' for Inactive)
REMARK    1  A    between atoms: C_1  and  C_2
REMARK    2  A    between atoms: C_3  and  O_72
REMARK    3  A    between atoms: C_22  and  O_70
REMARK    4  A    between atoms: C_23  and  C_69
REMARK    5  A    between atoms: C_29  and  O_68
REMARK    6  A    between atoms: C_34  and  C_35
REMARK    7  A    between atoms: C_35  and  C_36
REMARK    8  A    between atoms: C_36  and  C_37
REMARK    9  A    between atoms: C_36  and  O_66
REMARK   10  A    between atoms: C_37  and  C_38
REMARK   11  A    between atoms: C_37  and  C_39
REMARK   12  A    between atoms: C_39  and  C_40
REMARK   13  A    between atoms: C_40  and  C_41
REMARK   14  A    between atoms: C_41  and  C_42
REMARK   15  A    between atoms: C_41  and  O_57
REMARK   16  A    between atoms: C_42  and  C_43
REMARK   17  A    between atoms: C_42  and  C_44
REMARK   18  A    between atoms: C_44  and  C_45
REMARK   19  A    between atoms: C_44  and  O_53
REMARK   20  A    between atoms: C_45  and  C_46
REMARK   21  A    between atoms: C_45  and  C_47
REMARK   22  A    between atoms: C_48  and  N_49
REMARK   23  A    between atoms: N_49  and  C_50
REMARK   24  A    between atoms: O_53  and  C_54
REMARK   25  A    between atoms: C_54  and  C_56
REMARK   26  A    between atoms: O_57  and  C_58
REMARK   27  A    between atoms: C_58  and  C_60
REMARK   28  A    between atoms: C_60  and  C_61
REMARK   29  A    between atoms: C_60  and  O_64
REMARK   30  A    between atoms: C_61  and  O_62
REMARK   31  A    between atoms: O_62  and  C_63
REMARK   32  A    between atoms: O_64  and  C_65
REMARK   33  A    between atoms: O_66  and  C_67
REMARK   34  A    between atoms: O_70  and  C_71
REMARK   35  A    between atoms: O_72  and  C_73
REMARK                            x       y       z     vdW  Elec       q    Type
REMARK                         _______ _______ _______ _____ _____    ______ ____
ROOT
ATOM      1  C   UNL     1     145.544 165.603 188.899  0.00  0.00    +0.011 C 
ATOM      2  H   UNL     1     144.543 165.828 188.517  0.00  0.00    +0.033 HD
ATOM      3  H   UNL     1     146.140 166.522 188.853  0.00  0.00    +0.033 HD
ENDROOT
BRANCH   1  36
ATOM      4  C   UNL     1     145.197 163.725 187.141  0.00  0.00    +0.020 C 
ATOM      5  C   UNL     1     144.279 162.766 187.953  0.00  0.00    +0.068 C 
ATOM      6  C   UNL     1     145.019 161.804 188.919  0.00  0.00    -0.008 C 
ATOM      7  C   UNL     1     146.292 161.184 188.410  0.00  0.00    -0.077 C 
ATOM      8  C   UNL     1     146.402 160.373 187.347  0.00  0.00    -0.003 C 
ATOM      9  C   UNL     1     147.682 159.873 186.973  0.00  0.00    +0.220 A 
ATOM     10  N   UNL     1     148.852 160.438 187.254  0.00  0.00    -0.205 NA
ATOM     11  C   UNL     1     149.800 159.540 186.833  0.00  0.00    +0.164 A 
ATOM     12  C   UNL     1     149.191 158.465 186.249  0.00  0.00    +0.125 A 
ATOM     13  O   UNL     1     147.846 158.675 186.287  0.00  0.00    -0.443 OA
ATOM     14  C   UNL     1     151.327 159.730 187.045  0.00  0.00    +0.250 A 
ATOM     15  N   UNL     1     151.851 160.846 187.526  0.00  0.00    -0.203 NA
ATOM     16  C   UNL     1     153.188 160.563 187.654  0.00  0.00    +0.164 A 
ATOM     17  C   UNL     1     153.441 159.298 187.200  0.00  0.00    +0.125 A 
ATOM     18  O   UNL     1     152.262 158.755 186.782  0.00  0.00    -0.442 OA
ATOM     19  C   UNL     1     154.255 161.550 188.215  0.00  0.00    +0.249 A 
ATOM     20  N   UNL     1     153.989 162.809 188.521  0.00  0.00    -0.210 NA
ATOM     21  C   UNL     1     155.203 163.346 188.893  0.00  0.00    +0.109 A 
ATOM     22  C   UNL     1     156.151 162.353 188.874  0.00  0.00    +0.118 A 
ATOM     23  O   UNL     1     155.576 161.213 188.399  0.00  0.00    -0.442 OA
ATOM     24  C   UNL     1     155.345 164.799 189.241  0.00  0.00    +0.113 C 
ATOM     25  C   UNL     1     155.695 165.704 188.041  0.00  0.00    +0.051 C 
ATOM     26  C   UNL     1     154.446 166.188 187.326  0.00  0.00    +0.161 C 
ATOM     27  O   UNL     1     154.087 167.362 187.433  0.00  0.00    -0.292 OA
ATOM     28  C   UNL     1     153.641 165.222 186.524  0.00  0.00    -0.023 C 
ATOM     29  C   UNL     1     152.445 165.577 186.028  0.00  0.00    -0.078 C 
ATOM     30  C   UNL     1     151.519 164.618 185.334  0.00  0.00    -0.008 C 
ATOM     31  C   UNL     1     150.267 164.308 186.170  0.00  0.00    +0.069 C 
ATOM     32  C   UNL     1     149.310 165.496 186.256  0.00  0.00    +0.071 C 
ATOM     33  C   UNL     1     148.411 165.281 187.439  0.00  0.00    +0.310 C 
ATOM     34  O   UNL     1     148.831 165.200 188.585  0.00  0.00    -0.251 OA
ATOM     35  O   UNL     1     147.114 165.156 187.060  0.00  0.00    -0.461 OA
ATOM     36  C   UNL     1     146.204 164.532 188.004  0.00  0.00    +0.110 C 
ATOM     37  H   UNL     1     145.779 163.114 186.431  0.00  0.00    +0.036 HD
ATOM     38  H   UNL     1     143.581 163.371 188.545  0.00  0.00    +0.060 HD
ATOM     39  H   UNL     1     145.266 162.359 189.828  0.00  0.00    +0.033 HD
ATOM     40  H   UNL     1     144.354 160.994 189.239  0.00  0.00    +0.033 HD
ATOM     41  H   UNL     1     147.192 161.447 188.972  0.00  0.00    +0.057 HD
ATOM     42  H   UNL     1     145.538 160.065 186.773  0.00  0.00    +0.067 HD
ATOM     43  H   UNL     1     149.523 157.550 185.783  0.00  0.00    +0.105 HD
ATOM     44  H   UNL     1     154.323 158.674 187.114  0.00  0.00    +0.105 HD
ATOM     45  H   UNL     1     157.209 162.315 189.095  0.00  0.00    +0.105 HD
ATOM     46  H   UNL     1     154.380 165.112 189.663  0.00  0.00    +0.067 HD
ATOM     47  H   UNL     1     156.153 166.618 188.447  0.00  0.00    +0.041 HD
ATOM     48  H   UNL     1     154.014 164.212 186.416  0.00  0.00    +0.065 HD
ATOM     49  H   UNL     1     152.096 166.600 186.157  0.00  0.00    +0.057 HD
ATOM     50  H   UNL     1     151.231 165.026 184.358  0.00  0.00    +0.033 HD
ATOM     51  H   UNL     1     152.039 163.675 185.115  0.00  0.00    +0.033 HD
ATOM     52  H   UNL     1     150.574 163.972 187.168  0.00  0.00    +0.060 HD
ATOM     53  H   UNL     1     149.820 166.450 186.432  0.00  0.00    +0.040 HD
ATOM     54  H   UNL     1     148.712 165.601 185.341  0.00  0.00    +0.040 HD
ATOM     55  H   UNL     1     146.779 163.817 188.594  0.00  0.00    +0.074 HD
BRANCH   4  56
ATOM     56  C   UNL     1     144.359 164.653 186.242  0.00  0.00    -0.057 C 
ATOM     57  H   UNL     1     144.993 165.192 185.533  0.00  0.00    +0.023 HD
ATOM     58  H   UNL     1     143.811 165.389 186.833  0.00  0.00    +0.023 HD
ATOM     59  H   UNL     1     143.631 164.085 185.652  0.00  0.00    +0.023 HD
ENDBRANCH   4  56
BRANCH  25  60
ATOM     60  C   UNL     1     156.740 165.148 187.073  0.00  0.00    -0.053 C 
ATOM     61  H   UNL     1     156.400 165.155 186.032  0.00  0.00    +0.024 HD
ATOM     62  H   UNL     1     157.013 164.122 187.344  0.00  0.00    +0.024 HD
ATOM     63  H   UNL     1     157.650 165.761 187.114  0.00  0.00    +0.024 HD
ENDBRANCH  25  60
BRANCH  31  64
ATOM     64  O   UNL     1     149.567 163.224 185.551  0.00  0.00    -0.391 OA
ATOM     65  H   UNL     1     149.976 162.397 185.885  0.00  0.00    +0.210 HD
ENDBRANCH  31  64
BRANCH  24  66
ATOM     66  O   UNL     1     156.363 164.956 190.249  0.00  0.00    -0.373 OA
BRANCH  66  67
ATOM     67  C   UNL     1     156.546 166.318 190.618  0.00  0.00    +0.037 C 
ATOM     68  H   UNL     1     155.731 166.664 191.262  0.00  0.00    +0.052 HD
ATOM     69  H   UNL     1     157.507 166.450 191.128  0.00  0.00    +0.052 HD
ATOM     70  H   UNL     1     156.551 166.923 189.708  0.00  0.00    +0.052 HD
ENDBRANCH  66  67
ENDBRANCH  24  66
BRANCH   5  71
ATOM     71  O   UNL     1     143.510 161.987 187.012  0.00  0.00    -0.379 OA
BRANCH  71  72
ATOM     72  C   UNL     1     142.312 161.467 187.578  0.00  0.00    +0.037 C 
ATOM     73  H   UNL     1     141.560 161.264 186.810  0.00  0.00    +0.052 HD
ATOM     74  H   UNL     1     141.912 162.216 188.269  0.00  0.00    +0.052 HD
ATOM     75  H   UNL     1     142.526 160.554 188.143  0.00  0.00    +0.052 HD
ENDBRANCH  71  72
ENDBRANCH   5  71
ENDBRANCH   1  36
BRANCH   1  76
ATOM     76  C   UNL     1     145.374 165.171 190.365  0.00  0.00    +0.064 C 
ATOM     77  H   UNL     1     145.864 164.206 190.528  0.00  0.00    +0.060 HD
BRANCH  76  78
ATOM     78  C   UNL     1     145.939 166.205 191.378  0.00  0.00    -0.017 C 
ATOM     79  H   UNL     1     145.710 167.198 190.990  0.00  0.00    +0.032 HD
BRANCH  78  80
ATOM     80  C   UNL     1     145.175 166.058 192.715  0.00  0.00    -0.060 C 
ATOM     81  H   UNL     1     144.203 165.575 192.559  0.00  0.00    +0.023 HD
ATOM     82  H   UNL     1     145.726 165.435 193.425  0.00  0.00    +0.023 HD
ATOM     83  H   UNL     1     144.997 167.036 193.174  0.00  0.00    +0.023 HD
ENDBRANCH  78  80
BRANCH  78  84
ATOM     84  C   UNL     1     147.438 166.107 191.710  0.00  0.00    -0.045 C 
ATOM     85  H   UNL     1     147.607 165.173 192.269  0.00  0.00    +0.027 HD
ATOM     86  H   UNL     1     148.006 165.979 190.773  0.00  0.00    +0.027 HD
BRANCH  84  87
ATOM     87  C   UNL     1     148.121 167.203 192.545  0.00  0.00    -0.015 C 
ATOM     88  H   UNL     1     147.293 167.673 193.087  0.00  0.00    +0.030 HD
ATOM     89  H   UNL     1     148.746 166.748 193.321  0.00  0.00    +0.030 HD
BRANCH  87  90
ATOM     90  C   UNL     1     148.930 168.321 191.844  0.00  0.00    +0.109 C 
ATOM     91  H   UNL     1     149.039 168.028 190.793  0.00  0.00    +0.074 HD
BRANCH  90  92
ATOM     92  C   UNL     1     150.346 168.497 192.504  0.00  0.00    +0.031 C 
ATOM     93  H   UNL     1     150.198 168.525 193.590  0.00  0.00    +0.037 HD
BRANCH  92  94
ATOM     94  C   UNL     1     150.968 169.870 192.183  0.00  0.00    -0.056 C 
ATOM     95  H   UNL     1     150.208 170.650 192.129  0.00  0.00    +0.023 HD
ATOM     96  H   UNL     1     151.525 169.847 191.243  0.00  0.00    +0.023 HD
ATOM     97  H   UNL     1     151.661 170.177 192.976  0.00  0.00    +0.023 HD
ENDBRANCH  92  94
BRANCH  92  98
ATOM     98  C   UNL     1     151.410 167.407 192.151  0.00  0.00    +0.115 C 
ATOM     99  H   UNL     1     152.205 167.880 191.555  0.00  0.00    +0.074 HD
BRANCH  98 100
ATOM    100  C   UNL     1     152.156 166.771 193.362  0.00  0.00    +0.013 C 
ATOM    101  H   UNL     1     152.472 167.553 194.057  0.00  0.00    +0.038 HD
BRANCH 100 102
ATOM    102  C   UNL     1     153.398 165.983 192.922  0.00  0.00    -0.056 C 
ATOM    103  H   UNL     1     154.224 166.653 192.643  0.00  0.00    +0.024 HD
ATOM    104  H   UNL     1     153.762 165.326 193.727  0.00  0.00    +0.024 HD
ATOM    105  H   UNL     1     153.186 165.359 192.049  0.00  0.00    +0.024 HD
ENDBRANCH 100 102
BRANCH 100 106
ATOM    106  C   UNL     1     151.247 165.819 194.123  0.00  0.00    -0.064 C 
ATOM    107  C   UNL     1     150.937 165.972 195.419  0.00  0.00    -0.005 C 
ATOM    108  H   UNL     1     150.864 164.975 193.554  0.00  0.00    +0.059 HD
ATOM    109  H   UNL     1     151.373 166.814 195.956  0.00  0.00    +0.078 HD
BRANCH 107 110
ATOM    110  N   UNL     1     150.129 165.156 196.194  0.00  0.00    -0.284 N 
ATOM    111  C   UNL     1     150.488 163.904 196.694  0.00  0.00    +0.206 C 
ATOM    112  O   UNL     1     151.544 163.295 196.563  0.00  0.00    -0.279 OA
ATOM    113  H   UNL     1     149.670 163.442 197.273  0.00  0.00    +0.126 HD
BRANCH 110 114
ATOM    114  C   UNL     1     148.792 165.659 196.503  0.00  0.00    +0.007 C 
ATOM    115  H   UNL     1     148.733 165.875 197.576  0.00  0.00    +0.043 HD
ATOM    116  H   UNL     1     148.014 164.929 196.255  0.00  0.00    +0.043 HD
ATOM    117  H   UNL     1     148.610 166.575 195.933  0.00  0.00    +0.043 HD
ENDBRANCH 110 114
ENDBRANCH 107 110
ENDBRANCH 100 106
ENDBRANCH  98 100
BRANCH  98 118
ATOM    118  O   UNL     1     150.793 166.347 191.384  0.00  0.00    -0.461 OA
BRANCH 118 119
ATOM    119  C   UNL     1     151.407 166.014 190.212  0.00  0.00    +0.304 C 
ATOM    120  O   UNL     1     151.842 164.909 189.918  0.00  0.00    -0.251 OA
BRANCH 119 121
ATOM    121  C   UNL     1     151.516 167.213 189.319  0.00  0.00    +0.033 C 
ATOM    122  H   UNL     1     152.427 167.138 188.723  0.00  0.00    +0.034 HD
ATOM    123  H   UNL     1     151.519 168.126 189.921  0.00  0.00    +0.034 HD
ATOM    124  H   UNL     1     150.647 167.252 188.657  0.00  0.00    +0.034 HD
ENDBRANCH 119 121
ENDBRANCH 118 119
ENDBRANCH  98 118
ENDBRANCH  92  98
ENDBRANCH  90  92
BRANCH  90 125
ATOM    125  O   UNL     1     148.181 169.562 191.914  0.00  0.00    -0.459 OA
BRANCH 125 126
ATOM    126  C   UNL     1     147.663 170.027 190.728  0.00  0.00    +0.339 C 
ATOM    127  O   UNL     1     147.608 169.366 189.699  0.00  0.00    -0.248 OA
BRANCH 126 128
ATOM    128  C   UNL     1     147.229 171.501 190.804  0.00  0.00    +0.178 C 
ATOM    129  H   UNL     1     146.595 171.593 191.700  0.00  0.00    +0.074 HD
BRANCH 128 130
ATOM    130  C   UNL     1     148.466 172.383 190.996  0.00  0.00    +0.084 C 
ATOM    131  H   UNL     1     149.353 171.760 191.125  0.00  0.00    +0.059 HD
ATOM    132  H   UNL     1     148.631 172.979 190.091  0.00  0.00    +0.059 HD
BRANCH 130 133
ATOM    133  O   UNL     1     148.311 173.257 192.111  0.00  0.00    -0.380 OA
BRANCH 133 134
ATOM    134  C   UNL     1     148.868 172.702 193.294  0.00  0.00    +0.037 C 
ATOM    135  H   UNL     1     148.533 171.667 193.417  0.00  0.00    +0.052 HD
ATOM    136  H   UNL     1     149.957 172.707 193.198  0.00  0.00    +0.052 HD
ATOM    137  H   UNL     1     148.589 173.290 194.174  0.00  0.00    +0.052 HD
ENDBRANCH 133 134
ENDBRANCH 130 133
ENDBRANCH 128 130
BRANCH 128 138
ATOM    138  O   UNL     1     146.516 171.997 189.667  0.00  0.00    -0.366 OA
BRANCH 138 139
ATOM    139  C   UNL     1     145.111 171.846 189.805  0.00  0.00    +0.038 C 
ATOM    140  H   UNL     1     144.732 171.342 188.911  0.00  0.00    +0.052 HD
ATOM    141  H   UNL     1     144.627 172.826 189.877  0.00  0.00    +0.052 HD
ATOM    142  H   UNL     1     144.863 171.239 190.679  0.00  0.00    +0.052 HD
ENDBRANCH 138 139
ENDBRANCH 128 138
ENDBRANCH 126 128
ENDBRANCH 125 126
ENDBRANCH  90 125
ENDBRANCH  87  90
ENDBRANCH  84  87
ENDBRANCH  78  84
ENDBRANCH  76  78
BRANCH  76 143
ATOM    143  O   UNL     1     143.959 165.093 190.624  0.00  0.00    -0.379 OA
BRANCH 143 144
ATOM    144  C   UNL     1     143.162 165.817 189.695  0.00  0.00    +0.037 C 
ATOM    145  H   UNL     1     142.999 166.823 190.096  0.00  0.00    +0.052 HD
ATOM    146  H   UNL     1     142.186 165.344 189.535  0.00  0.00    +0.052 HD
ATOM    147  H   UNL     1     143.687 165.921 188.744  0.00  0.00    +0.052 HD
ENDBRANCH 143 144
ENDBRANCH  76 143
ENDBRANCH   1  76
TORSDOF 35
ENDMDL
MODEL 2
REMARK VINA RESULT:      -5.5      1.914      4.854
REMARK  Name = Mycalolide B_conf3
REMARK  35 active torsions:
REMARK  status: ('A' for Active; 'I' for Inactive)
REMARK    1  A    between atoms: C_1  and  C_2
REMARK    2  A    between atoms: C_3  and  O_72
REMARK    3  A    between atoms: C_22  and  O_70
REMARK    4  A    between atoms: C_23  and  C_69
REMARK    5  A    between atoms: C_29  and  O_68
REMARK    6  A    between atoms: C_34  and  C_35
REMARK    7  A    between atoms: C_35  and  C_36
REMARK    8  A    between atoms: C_36  and  C_37
REMARK    9  A    between atoms: C_36  and  O_66
REMARK   10  A    between atoms: C_37  and  C_38
REMARK   11  A    between atoms: C_37  and  C_39
REMARK   12  A    between atoms: C_39  and  C_40
REMARK   13  A    between atoms: C_40  and  C_41
REMARK   14  A    between atoms: C_41  and  C_42
REMARK   15  A    between atoms: C_41  and  O_57
REMARK   16  A    between atoms: C_42  and  C_43
REMARK   17  A    between atoms: C_42  and  C_44
REMARK   18  A    between atoms: C_44  and  C_45
REMARK   19  A    between atoms: C_44  and  O_53
REMARK   20  A    between atoms: C_45  and  C_46
REMARK   21  A    between atoms: C_45  and  C_47
REMARK   22  A    between atoms: C_48  and  N_49
REMARK   23  A    between atoms: N_49  and  C_50
REMARK   24  A    between atoms: O_53  and  C_54
REMARK   25  A    between atoms: C_54  and  C_56
REMARK   26  A    between atoms: O_57  and  C_58
REMARK   27  A    between atoms: C_58  and  C_60
REMARK   28  A    between atoms: C_60  and  C_61
REMARK   29  A    between atoms: C_60  and  O_64
REMARK   30  A    between atoms: C_61  and  O_62
REMARK   31  A    between atoms: O_62  and  C_63
REMARK   32  A    between atoms: O_64  and  C_65
REMARK   33  A    between atoms: O_66  and  C_67
REMARK   34  A    between atoms: O_70  and  C_71
REMARK   35  A    between atoms: O_72  and  C_73
REMARK                            x       y       z     vdW  Elec       q    Type
REMARK                         _______ _______ _______ _____ _____    ______ ____
ROOT
ATOM      1  C   UNL     1     145.442 165.953 189.474  0.00  0.00    +0.011 C 
ATOM      2  H   UNL     1     144.447 166.265 189.140  0.00  0.00    +0.033 HD
ATOM      3  H   UNL     1     146.086 166.839 189.494  0.00  0.00    +0.033 HD
ENDROOT
BRANCH   1  36
ATOM      4  C   UNL     1     144.950 164.233 187.593  0.00  0.00    +0.020 C 
ATOM      5  C   UNL     1     144.030 163.246 188.368  0.00  0.00    +0.068 C 
ATOM      6  C   UNL     1     144.770 162.185 189.222  0.00  0.00    -0.008 C 
ATOM      7  C   UNL     1     145.997 161.563 188.612  0.00  0.00    -0.077 C 
ATOM      8  C   UNL     1     146.031 160.835 187.485  0.00  0.00    -0.003 C 
ATOM      9  C   UNL     1     147.274 160.321 187.018  0.00  0.00    +0.220 A 
ATOM     10  N   UNL     1     148.476 160.819 187.290  0.00  0.00    -0.205 NA
ATOM     11  C   UNL     1     149.370 159.925 186.759  0.00  0.00    +0.164 A 
ATOM     12  C   UNL     1     148.697 158.922 186.121  0.00  0.00    +0.125 A 
ATOM     13  O   UNL     1     147.364 159.176 186.235  0.00  0.00    -0.443 OA
ATOM     14  C   UNL     1     150.911 160.042 186.918  0.00  0.00    +0.250 A 
ATOM     15  N   UNL     1     151.497 161.098 187.461  0.00  0.00    -0.203 NA
ATOM     16  C   UNL     1     152.826 160.759 187.507  0.00  0.00    +0.164 A 
ATOM     17  C   UNL     1     153.011 159.525 186.946  0.00  0.00    +0.125 A 
ATOM     18  O   UNL     1     151.795 159.059 186.540  0.00  0.00    -0.442 OA
ATOM     19  C   UNL     1     153.953 161.659 188.095  0.00  0.00    +0.249 A 
ATOM     20  N   UNL     1     153.749 162.899 188.509  0.00  0.00    -0.210 NA
ATOM     21  C   UNL     1     154.998 163.361 188.867  0.00  0.00    +0.109 A 
ATOM     22  C   UNL     1     155.904 162.340 188.731  0.00  0.00    +0.118 A 
ATOM     23  O   UNL     1     155.266 161.262 188.194  0.00  0.00    -0.442 OA
ATOM     24  C   UNL     1     155.210 164.777 189.321  0.00  0.00    +0.113 C 
ATOM     25  C   UNL     1     155.546 165.760 188.180  0.00  0.00    +0.051 C 
ATOM     26  C   UNL     1     154.288 166.343 187.561  0.00  0.00    +0.161 C 
ATOM     27  O   UNL     1     153.979 167.518 187.774  0.00  0.00    -0.292 OA
ATOM     28  C   UNL     1     153.414 165.473 186.723  0.00  0.00    -0.023 C 
ATOM     29  C   UNL     1     152.213 165.908 186.309  0.00  0.00    -0.078 C 
ATOM     30  C   UNL     1     151.222 165.041 185.584  0.00  0.00    -0.008 C 
ATOM     31  C   UNL     1     149.994 164.711 186.447  0.00  0.00    +0.069 C 
ATOM     32  C   UNL     1     149.089 165.921 186.667  0.00  0.00    +0.071 C 
ATOM     33  C   UNL     1     148.231 165.646 187.868  0.00  0.00    +0.310 C 
ATOM     34  O   UNL     1     148.695 165.459 188.985  0.00  0.00    -0.251 OA
ATOM     35  O   UNL     1     146.917 165.597 187.538  0.00  0.00    -0.461 OA
ATOM     36  C   UNL     1     146.023 164.934 188.471  0.00  0.00    +0.110 C 
ATOM     37  H   UNL     1     145.478 163.660 186.813  0.00  0.00    +0.036 HD
ATOM     38  H   UNL     1     143.381 163.827 189.035  0.00  0.00    +0.060 HD
ATOM     39  H   UNL     1     145.076 162.658 190.160  0.00  0.00    +0.033 HD
ATOM     40  H   UNL     1     144.088 161.377 189.508  0.00  0.00    +0.033 HD
ATOM     41  H   UNL     1     146.929 161.748 189.152  0.00  0.00    +0.057 HD
ATOM     42  H   UNL     1     145.133 160.604 186.928  0.00  0.00    +0.067 HD
ATOM     43  H   UNL     1     148.973 158.035 185.572  0.00  0.00    +0.105 HD
ATOM     44  H   UNL     1     153.863 158.879 186.773  0.00  0.00    +0.105 HD
ATOM     45  H   UNL     1     156.969 162.246 188.901  0.00  0.00    +0.105 HD
ATOM     46  H   UNL     1     154.276 165.089 189.808  0.00  0.00    +0.067 HD
ATOM     47  H   UNL     1     156.055 166.623 188.635  0.00  0.00    +0.041 HD
ATOM     48  H   UNL     1     153.742 164.462 186.520  0.00  0.00    +0.065 HD
ATOM     49  H   UNL     1     151.909 166.929 186.531  0.00  0.00    +0.057 HD
ATOM     50  H   UNL     1     150.911 165.534 184.656  0.00  0.00    +0.033 HD
ATOM     51  H   UNL     1     151.696 164.101 185.270  0.00  0.00    +0.033 HD
ATOM     52  H   UNL     1     150.329 164.286 187.402  0.00  0.00    +0.060 HD
ATOM     53  H   UNL     1     149.643 166.840 186.894  0.00  0.00    +0.040 HD
ATOM     54  H   UNL     1     148.458 166.119 185.790  0.00  0.00    +0.040 HD
ATOM     55  H   UNL     1     146.593 164.154 188.978  0.00  0.00    +0.074 HD
BRANCH   4  56
ATOM     56  C   UNL     1     144.112 165.258 186.806  0.00  0.00    -0.057 C 
ATOM     57  H   UNL     1     144.379 166.282 187.085  0.00  0.00    +0.023 HD
ATOM     58  H   UNL     1     143.045 165.125 186.993  0.00  0.00    +0.023 HD
ATOM     59  H   UNL     1     144.280 165.167 185.728  0.00  0.00    +0.023 HD
ENDBRANCH   4  56
BRANCH  25  60
ATOM     60  C   UNL     1     156.527 165.246 187.127  0.00  0.00    -0.053 C 
ATOM     61  H   UNL     1     156.209 165.472 186.104  0.00  0.00    +0.024 HD
ATOM     62  H   UNL     1     156.662 164.163 187.218  0.00  0.00    +0.024 HD
ATOM     63  H   UNL     1     157.508 165.720 187.267  0.00  0.00    +0.024 HD
ENDBRANCH  25  60
BRANCH  31  64
ATOM     64  O   UNL     1     149.229 163.704 185.778  0.00  0.00    -0.391 OA
ATOM     65  H   UNL     1     148.284 163.930 185.914  0.00  0.00    +0.210 HD
ENDBRANCH  31  64
BRANCH  24  66
ATOM     66  O   UNL     1     156.274 164.816 190.293  0.00  0.00    -0.373 OA
BRANCH  66  67
ATOM     67  C   UNL     1     156.570 166.145 190.708  0.00  0.00    +0.037 C 
ATOM     68  H   UNL     1     157.448 166.534 190.184  0.00  0.00    +0.052 HD
ATOM     69  H   UNL     1     155.710 166.801 190.533  0.00  0.00    +0.052 HD
ATOM     70  H   UNL     1     156.782 166.130 191.780  0.00  0.00    +0.052 HD
ENDBRANCH  66  67
ENDBRANCH  24  66
BRANCH   5  71
ATOM     71  O   UNL     1     143.193 162.572 187.404  0.00  0.00    -0.379 OA
BRANCH  71  72
ATOM     72  C   UNL     1     142.335 161.606 188.001  0.00  0.00    +0.037 C 
ATOM     73  H   UNL     1     141.282 161.876 187.883  0.00  0.00    +0.052 HD
ATOM     74  H   UNL     1     142.567 161.563 189.070  0.00  0.00    +0.052 HD
ATOM     75  H   UNL     1     142.519 160.617 187.567  0.00  0.00    +0.052 HD
ENDBRANCH  71  72
ENDBRANCH   5  71
ENDBRANCH   1  36
BRANCH   1  76
ATOM     76  C   UNL     1     145.280 165.400 190.900  0.00  0.00    +0.064 C 
ATOM     77  H   UNL     1     145.802 164.443 190.990  0.00  0.00    +0.060 HD
BRANCH  76  78
ATOM     78  C   UNL     1     145.803 166.370 191.996  0.00  0.00    -0.017 C 
ATOM     79  H   UNL     1     145.334 167.340 191.823  0.00  0.00    +0.032 HD
BRANCH  78  80
ATOM     80  C   UNL     1     145.310 165.872 193.375  0.00  0.00    -0.060 C 
ATOM     81  H   UNL     1     144.657 164.998 193.265  0.00  0.00    +0.023 HD
ATOM     82  H   UNL     1     146.144 165.564 194.012  0.00  0.00    +0.023 HD
ATOM     83  H   UNL     1     144.745 166.653 193.894  0.00  0.00    +0.023 HD
ENDBRANCH  78  80
BRANCH  78  84
ATOM     84  C   UNL     1     147.328 166.539 192.105  0.00  0.00    -0.045 C 
ATOM     85  H   UNL     1     147.719 165.739 192.752  0.00  0.00    +0.027 HD
ATOM     86  H   UNL     1     147.782 166.349 191.118  0.00  0.00    +0.027 HD
BRANCH  84  87
ATOM     87  C   UNL     1     147.926 167.839 192.669  0.00  0.00    -0.015 C 
ATOM     88  H   UNL     1     147.106 168.273 193.251  0.00  0.00    +0.030 HD
ATOM     89  H   UNL     1     148.704 167.605 193.404  0.00  0.00    +0.030 HD
BRANCH  87  90
ATOM     90  C   UNL     1     148.459 168.929 191.708  0.00  0.00    +0.109 C 
ATOM     91  H   UNL     1     148.781 169.775 192.328  0.00  0.00    +0.074 HD
BRANCH  90  92
ATOM     92  C   UNL     1     147.344 169.394 190.702  0.00  0.00    +0.031 C 
ATOM     93  H   UNL     1     146.414 168.889 190.989  0.00  0.00    +0.037 HD
BRANCH  92  94
ATOM     94  C   UNL     1     147.608 168.890 189.270  0.00  0.00    -0.056 C 
ATOM     95  H   UNL     1     146.811 168.230 188.926  0.00  0.00    +0.023 HD
ATOM     96  H   UNL     1     148.563 168.364 189.200  0.00  0.00    +0.023 HD
ATOM     97  H   UNL     1     147.633 169.728 188.561  0.00  0.00    +0.023 HD
ENDBRANCH  92  94
BRANCH  92  98
ATOM     98  C   UNL     1     147.093 170.935 190.616  0.00  0.00    +0.115 C 
ATOM     99  H   UNL     1     147.828 171.367 189.920  0.00  0.00    +0.074 HD
BRANCH  98 100
ATOM    100  C   UNL     1     145.711 171.367 190.040  0.00  0.00    +0.013 C 
ATOM    101  H   UNL     1     145.120 170.483 189.790  0.00  0.00    +0.038 HD
BRANCH 100 102
ATOM    102  C   UNL     1     145.859 172.224 188.774  0.00  0.00    -0.056 C 
ATOM    103  H   UNL     1     145.379 173.206 188.894  0.00  0.00    +0.024 HD
ATOM    104  H   UNL     1     146.917 172.399 188.530  0.00  0.00    +0.024 HD
ATOM    105  H   UNL     1     145.390 171.744 187.911  0.00  0.00    +0.024 HD
ENDBRANCH 100 102
BRANCH 100 106
ATOM    106  C   UNL     1     144.924 172.174 191.060  0.00  0.00    -0.064 C 
ATOM    107  C   UNL     1     143.630 172.494 190.909  0.00  0.00    -0.005 C 
ATOM    108  H   UNL     1     145.482 172.504 191.934  0.00  0.00    +0.059 HD
ATOM    109  H   UNL     1     143.124 172.171 190.000  0.00  0.00    +0.078 HD
BRANCH 107 110
ATOM    110  N   UNL     1     142.837 173.228 191.775  0.00  0.00    -0.284 N 
ATOM    111  C   UNL     1     141.517 172.927 192.114  0.00  0.00    +0.206 C 
ATOM    112  O   UNL     1     140.819 171.991 191.738  0.00  0.00    -0.279 OA
ATOM    113  H   UNL     1     141.092 173.667 192.812  0.00  0.00    +0.126 HD
BRANCH 110 114
ATOM    114  C   UNL     1     143.443 174.415 192.374  0.00  0.00    +0.007 C 
ATOM    115  H   UNL     1     144.529 174.276 192.419  0.00  0.00    +0.043 HD
ATOM    116  H   UNL     1     143.076 174.593 193.390  0.00  0.00    +0.043 HD
ATOM    117  H   UNL     1     143.209 175.289 191.759  0.00  0.00    +0.043 HD
ENDBRANCH 110 114
ENDBRANCH 107 110
ENDBRANCH 100 106
ENDBRANCH  98 100
BRANCH  98 118
ATOM    118  O   UNL     1     147.253 171.533 191.924  0.00  0.00    -0.461 OA
BRANCH 118 119
ATOM    119  C   UNL     1     148.265 172.439 192.054  0.00  0.00    +0.304 C 
ATOM    120  O   UNL     1     148.647 173.218 191.193  0.00  0.00    -0.251 OA
BRANCH 119 121
ATOM    121  C   UNL     1     148.890 172.332 193.412  0.00  0.00    +0.033 C 
ATOM    122  H   UNL     1     148.116 172.434 194.176  0.00  0.00    +0.034 HD
ATOM    123  H   UNL     1     149.657 173.102 193.531  0.00  0.00    +0.034 HD
ATOM    124  H   UNL     1     149.376 171.359 193.512  0.00  0.00    +0.034 HD
ENDBRANCH 119 121
ENDBRANCH 118 119
ENDBRANCH  98 118
ENDBRANCH  92  98
ENDBRANCH  90  92
BRANCH  90 125
ATOM    125  O   UNL     1     149.605 168.407 190.988  0.00  0.00    -0.459 OA
BRANCH 125 126
ATOM    126  C   UNL     1     150.841 168.715 191.507  0.00  0.00    +0.339 C 
ATOM    127  O   UNL     1     151.087 169.742 192.126  0.00  0.00    -0.248 OA
BRANCH 126 128
ATOM    128  C   UNL     1     151.912 167.667 191.158  0.00  0.00    +0.178 C 
ATOM    129  H   UNL     1     152.832 168.227 190.928  0.00  0.00    +0.074 HD
BRANCH 128 130
ATOM    130  C   UNL     1     152.176 166.788 192.383  0.00  0.00    +0.084 C 
ATOM    131  H   UNL     1     152.319 165.750 192.075  0.00  0.00    +0.059 HD
ATOM    132  H   UNL     1     153.110 167.103 192.862  0.00  0.00    +0.059 HD
BRANCH 130 133
ATOM    133  O   UNL     1     151.112 166.880 193.327  0.00  0.00    -0.380 OA
BRANCH 133 134
ATOM    134  C   UNL     1     150.968 165.680 194.074  0.00  0.00    +0.037 C 
ATOM    135  H   UNL     1     149.912 165.395 194.126  0.00  0.00    +0.052 HD
ATOM    136  H   UNL     1     151.518 164.886 193.562  0.00  0.00    +0.052 HD
ATOM    137  H   UNL     1     151.372 165.794 195.084  0.00  0.00    +0.052 HD
ENDBRANCH 133 134
ENDBRANCH 130 133
ENDBRANCH 128 130
BRANCH 128 138
ATOM    138  O   UNL     1     151.599 166.802 190.063  0.00  0.00    -0.366 OA
BRANCH 138 139
ATOM    139  C   UNL     1     151.877 165.440 190.355  0.00  0.00    +0.038 C 
ATOM    140  H   UNL     1     151.557 164.835 189.501  0.00  0.00    +0.052 HD
ATOM    141  H   UNL     1     151.314 165.115 191.236  0.00  0.00    +0.052 HD
ATOM    142  H   UNL     1     152.947 165.281 190.512  0.00  0.00    +0.052 HD
ENDBRANCH 138 139
ENDBRANCH 128 138
ENDBRANCH 126 128
ENDBRANCH 125 126
ENDBRANCH  90 125
ENDBRANCH  87  90
ENDBRANCH  84  87
ENDBRANCH  78  84
ENDBRANCH  76  78
BRANCH  76 143
ATOM    143  O   UNL     1     143.867 165.253 191.141  0.00  0.00    -0.379 OA
BRANCH 143 144
ATOM    144  C   UNL     1     143.061 166.192 190.439  0.00  0.00    +0.037 C 
ATOM    145  H   UNL     1     143.089 167.141 190.985  0.00  0.00    +0.052 HD
ATOM    146  H   UNL     1     142.018 165.864 190.365  0.00  0.00    +0.052 HD
ATOM    147  H   UNL     1     143.469 166.371 189.443  0.00  0.00    +0.052 HD
ENDBRANCH 143 144
ENDBRANCH  76 143
ENDBRANCH   1  76
TORSDOF 35
ENDMDL
MODEL 3
REMARK VINA RESULT:      -5.5      2.562      7.068
REMARK  Name = Mycalolide B_conf3
REMARK  35 active torsions:
REMARK  status: ('A' for Active; 'I' for Inactive)
REMARK    1  A    between atoms: C_1  and  C_2
REMARK    2  A    between atoms: C_3  and  O_72
REMARK    3  A    between atoms: C_22  and  O_70
REMARK    4  A    between atoms: C_23  and  C_69
REMARK    5  A    between atoms: C_29  and  O_68
REMARK    6  A    between atoms: C_34  and  C_35
REMARK    7  A    between atoms: C_35  and  C_36
REMARK    8  A    between atoms: C_36  and  C_37
REMARK    9  A    between atoms: C_36  and  O_66
REMARK   10  A    between atoms: C_37  and  C_38
REMARK   11  A    between atoms: C_37  and  C_39
REMARK   12  A    between atoms: C_39  and  C_40
REMARK   13  A    between atoms: C_40  and  C_41
REMARK   14  A    between atoms: C_41  and  C_42
REMARK   15  A    between atoms: C_41  and  O_57
REMARK   16  A    between atoms: C_42  and  C_43
REMARK   17  A    between atoms: C_42  and  C_44
REMARK   18  A    between atoms: C_44  and  C_45
REMARK   19  A    between atoms: C_44  and  O_53
REMARK   20  A    between atoms: C_45  and  C_46
REMARK   21  A    between atoms: C_45  and  C_47
REMARK   22  A    between atoms: C_48  and  N_49
REMARK   23  A    between atoms: N_49  and  C_50
REMARK   24  A    between atoms: O_53  and  C_54
REMARK   25  A    between atoms: C_54  and  C_56
REMARK   26  A    between atoms: O_57  and  C_58
REMARK   27  A    between atoms: C_58  and  C_60
REMARK   28  A    between atoms: C_60  and  C_61
REMARK   29  A    between atoms: C_60  and  O_64
REMARK   30  A    between atoms: C_61  and  O_62
REMARK   31  A    between atoms: O_62  and  C_63
REMARK   32  A    between atoms: O_64  and  C_65
REMARK   33  A    between atoms: O_66  and  C_67
REMARK   34  A    between atoms: O_70  and  C_71
REMARK   35  A    between atoms: O_72  and  C_73
REMARK                            x       y       z     vdW  Elec       q    Type
REMARK                         _______ _______ _______ _____ _____    ______ ____
ROOT
ATOM      1  C   UNL     1     146.774 171.787 189.901  0.00  0.00    +0.011 C 
ATOM      2  H   UNL     1     146.268 172.726 190.153  0.00  0.00    +0.033 HD
ATOM      3  H   UNL     1     147.648 172.029 189.286  0.00  0.00    +0.033 HD
ENDROOT
BRANCH   1  36
ATOM      4  C   UNL     1     144.449 171.560 188.768  0.00  0.00    +0.020 C 
ATOM      5  C   UNL     1     143.529 171.752 190.008  0.00  0.00    +0.068 C 
ATOM      6  C   UNL     1     143.299 170.480 190.865  0.00  0.00    -0.008 C 
ATOM      7  C   UNL     1     143.096 169.190 190.117  0.00  0.00    -0.077 C 
ATOM      8  C   UNL     1     142.094 168.925 189.264  0.00  0.00    -0.003 C 
ATOM      9  C   UNL     1     142.039 167.660 188.614  0.00  0.00    +0.220 A 
ATOM     10  N   UNL     1     143.073 166.855 188.387  0.00  0.00    -0.205 NA
ATOM     11  C   UNL     1     142.531 165.701 187.880  0.00  0.00    +0.164 A 
ATOM     12  C   UNL     1     141.177 165.843 187.753  0.00  0.00    +0.125 A 
ATOM     13  O   UNL     1     140.848 167.096 188.172  0.00  0.00    -0.443 OA
ATOM     14  C   UNL     1     143.357 164.427 187.553  0.00  0.00    +0.250 A 
ATOM     15  N   UNL     1     144.679 164.397 187.603  0.00  0.00    -0.203 NA
ATOM     16  C   UNL     1     144.997 163.085 187.355  0.00  0.00    +0.164 A 
ATOM     17  C   UNL     1     143.857 162.368 187.114  0.00  0.00    +0.125 A 
ATOM     18  O   UNL     1     142.795 163.218 187.213  0.00  0.00    -0.442 OA
ATOM     19  C   UNL     1     146.445 162.511 187.334  0.00  0.00    +0.249 A 
ATOM     20  N   UNL     1     147.526 163.264 187.443  0.00  0.00    -0.210 NA
ATOM     21  C   UNL     1     148.582 162.390 187.292  0.00  0.00    +0.109 A 
ATOM     22  C   UNL     1     148.089 161.115 187.178  0.00  0.00    +0.118 A 
ATOM     23  O   UNL     1     146.727 161.176 187.154  0.00  0.00    -0.442 OA
ATOM     24  C   UNL     1     150.003 162.873 187.272  0.00  0.00    +0.113 C 
ATOM     25  C   UNL     1     150.530 163.221 185.864  0.00  0.00    +0.051 C 
ATOM     26  C   UNL     1     150.230 164.665 185.499  0.00  0.00    +0.161 C 
ATOM     27  O   UNL     1     151.138 165.499 185.472  0.00  0.00    -0.292 OA
ATOM     28  C   UNL     1     148.824 165.069 185.210  0.00  0.00    -0.023 C 
ATOM     29  C   UNL     1     148.504 166.364 185.058  0.00  0.00    -0.078 C 
ATOM     30  C   UNL     1     147.092 166.856 184.906  0.00  0.00    -0.008 C 
ATOM     31  C   UNL     1     146.609 167.634 186.141  0.00  0.00    +0.069 C 
ATOM     32  C   UNL     1     147.289 168.994 186.280  0.00  0.00    +0.071 C 
ATOM     33  C   UNL     1     147.138 169.443 187.705  0.00  0.00    +0.310 C 
ATOM     34  O   UNL     1     147.603 168.820 188.649  0.00  0.00    -0.251 OA
ATOM     35  O   UNL     1     146.402 170.580 187.791  0.00  0.00    -0.461 OA
ATOM     36  C   UNL     1     145.817 170.895 189.082  0.00  0.00    +0.110 C 
ATOM     37  H   UNL     1     143.919 170.911 188.052  0.00  0.00    +0.036 HD
ATOM     38  H   UNL     1     143.971 172.521 190.653  0.00  0.00    +0.060 HD
ATOM     39  H   UNL     1     144.169 170.347 191.514  0.00  0.00    +0.033 HD
ATOM     40  H   UNL     1     142.446 170.618 191.538  0.00  0.00    +0.033 HD
ATOM     41  H   UNL     1     143.854 168.424 190.298  0.00  0.00    +0.057 HD
ATOM     42  H   UNL     1     141.307 169.641 189.069  0.00  0.00    +0.067 HD
ATOM     43  H   UNL     1     140.366 165.223 187.404  0.00  0.00    +0.105 HD
ATOM     44  H   UNL     1     143.634 161.334 186.883  0.00  0.00    +0.105 HD
ATOM     45  H   UNL     1     148.538 160.138 187.054  0.00  0.00    +0.105 HD
ATOM     46  H   UNL     1     150.034 163.771 187.904  0.00  0.00    +0.067 HD
ATOM     47  H   UNL     1     151.628 163.170 185.907  0.00  0.00    +0.041 HD
ATOM     48  H   UNL     1     148.063 164.300 185.198  0.00  0.00    +0.065 HD
ATOM     49  H   UNL     1     149.292 167.115 185.078  0.00  0.00    +0.057 HD
ATOM     50  H   UNL     1     147.015 167.483 184.010  0.00  0.00    +0.033 HD
ATOM     51  H   UNL     1     146.411 166.012 184.731  0.00  0.00    +0.033 HD
ATOM     52  H   UNL     1     146.762 167.018 187.036  0.00  0.00    +0.060 HD
ATOM     53  H   UNL     1     148.367 168.961 186.085  0.00  0.00    +0.040 HD
ATOM     54  H   UNL     1     146.850 169.737 185.601  0.00  0.00    +0.040 HD
ATOM     55  H   UNL     1     145.615 169.952 189.593  0.00  0.00    +0.074 HD
BRANCH   4  56
ATOM     56  C   UNL     1     144.632 172.889 188.012  0.00  0.00    -0.057 C 
ATOM     57  H   UNL     1     144.906 173.696 188.696  0.00  0.00    +0.023 HD
ATOM     58  H   UNL     1     143.715 173.180 187.496  0.00  0.00    +0.023 HD
ATOM     59  H   UNL     1     145.430 172.816 187.267  0.00  0.00    +0.023 HD
ENDBRANCH   4  56
BRANCH  25  60
ATOM     60  C   UNL     1     150.144 162.249 184.750  0.00  0.00    -0.053 C 
ATOM     61  H   UNL     1     149.871 161.258 185.127  0.00  0.00    +0.024 HD
ATOM     62  H   UNL     1     150.964 162.135 184.032  0.00  0.00    +0.024 HD
ATOM     63  H   UNL     1     149.271 162.632 184.205  0.00  0.00    +0.024 HD
ENDBRANCH  25  60
BRANCH  31  64
ATOM     64  O   UNL     1     145.201 167.856 186.012  0.00  0.00    -0.391 OA
ATOM     65  H   UNL     1     144.799 167.633 186.878  0.00  0.00    +0.210 HD
ENDBRANCH  31  64
BRANCH  24  66
ATOM     66  O   UNL     1     150.861 161.870 187.850  0.00  0.00    -0.373 OA
BRANCH  66  67
ATOM     67  C   UNL     1     152.227 162.066 187.499  0.00  0.00    +0.037 C 
ATOM     68  H   UNL     1     152.360 162.039 186.413  0.00  0.00    +0.052 HD
ATOM     69  H   UNL     1     152.591 163.019 187.898  0.00  0.00    +0.052 HD
ATOM     70  H   UNL     1     152.814 161.257 187.942  0.00  0.00    +0.052 HD
ENDBRANCH  66  67
ENDBRANCH  24  66
BRANCH   5  71
ATOM     71  O   UNL     1     142.252 172.239 189.541  0.00  0.00    -0.379 OA
BRANCH  71  72
ATOM     72  C   UNL     1     141.377 172.597 190.604  0.00  0.00    +0.037 C 
ATOM     73  H   UNL     1     140.442 172.032 190.563  0.00  0.00    +0.052 HD
ATOM     74  H   UNL     1     141.146 173.663 190.507  0.00  0.00    +0.052 HD
ATOM     75  H   UNL     1     141.870 172.438 191.569  0.00  0.00    +0.052 HD
ENDBRANCH  71  72
ENDBRANCH   5  71
ENDBRANCH   1  36
BRANCH   1  76
ATOM     76  C   UNL     1     147.231 171.159 191.227  0.00  0.00    +0.064 C 
ATOM     77  H   UNL     1     146.699 170.217 191.396  0.00  0.00    +0.060 HD
BRANCH  76  78
ATOM     78  C   UNL     1     148.762 170.895 191.283  0.00  0.00    -0.017 C 
ATOM     79  H   UNL     1     149.171 171.147 190.304  0.00  0.00    +0.032 HD
BRANCH  78  80
ATOM     80  C   UNL     1     149.396 171.873 192.301  0.00  0.00    -0.060 C 
ATOM     81  H   UNL     1     150.430 171.587 192.527  0.00  0.00    +0.023 HD
ATOM     82  H   UNL     1     149.430 172.893 191.909  0.00  0.00    +0.023 HD
ATOM     83  H   UNL     1     148.834 171.879 193.240  0.00  0.00    +0.023 HD
ENDBRANCH  78  80
BRANCH  78  84
ATOM     84  C   UNL     1     149.210 169.481 191.689  0.00  0.00    -0.045 C 
ATOM     85  H   UNL     1     149.792 169.051 190.858  0.00  0.00    +0.027 HD
ATOM     86  H   UNL     1     149.927 169.556 192.523  0.00  0.00    +0.027 HD
BRANCH  84  87
ATOM     87  C   UNL     1     148.167 168.408 192.044  0.00  0.00    -0.015 C 
ATOM     88  H   UNL     1     147.705 168.786 192.963  0.00  0.00    +0.030 HD
ATOM     89  H   UNL     1     147.362 168.407 191.301  0.00  0.00    +0.030 HD
BRANCH  87  90
ATOM     90  C   UNL     1     148.612 166.947 192.300  0.00  0.00    +0.109 C 
ATOM     91  H   UNL     1     148.461 166.748 193.368  0.00  0.00    +0.074 HD
BRANCH  90  92
ATOM     92  C   UNL     1     150.124 166.739 191.923  0.00  0.00    +0.031 C 
ATOM     93  H   UNL     1     150.493 167.689 191.516  0.00  0.00    +0.037 HD
BRANCH  92  94
ATOM     94  C   UNL     1     150.301 165.748 190.757  0.00  0.00    -0.056 C 
ATOM     95  H   UNL     1     151.355 165.564 190.545  0.00  0.00    +0.023 HD
ATOM     96  H   UNL     1     149.810 166.106 189.848  0.00  0.00    +0.023 HD
ATOM     97  H   UNL     1     149.868 164.771 191.008  0.00  0.00    +0.023 HD
ENDBRANCH  92  94
BRANCH  92  98
ATOM     98  C   UNL     1     151.064 166.271 193.082  0.00  0.00    +0.115 C 
ATOM     99  H   UNL     1     151.269 165.198 192.948  0.00  0.00    +0.074 HD
BRANCH  98 100
ATOM    100  C   UNL     1     152.473 166.934 193.122  0.00  0.00    +0.013 C 
ATOM    101  H   UNL     1     152.791 167.070 194.158  0.00  0.00    +0.038 HD
BRANCH 100 102
ATOM    102  C   UNL     1     152.483 168.305 192.430  0.00  0.00    -0.056 C 
ATOM    103  H   UNL     1     152.081 168.244 191.409  0.00  0.00    +0.024 HD
ATOM    104  H   UNL     1     151.876 169.037 192.983  0.00  0.00    +0.024 HD
ATOM    105  H   UNL     1     153.499 168.704 192.349  0.00  0.00    +0.024 HD
ENDBRANCH 100 102
BRANCH 100 106
ATOM    106  C   UNL     1     153.508 166.058 192.434  0.00  0.00    -0.064 C 
ATOM    107  C   UNL     1     153.945 166.275 191.184  0.00  0.00    -0.005 C 
ATOM    108  H   UNL     1     153.874 165.214 193.015  0.00  0.00    +0.059 HD
ATOM    109  H   UNL     1     153.523 167.112 190.631  0.00  0.00    +0.078 HD
BRANCH 107 110
ATOM    110  N   UNL     1     154.873 165.530 190.476  0.00  0.00    -0.284 N 
ATOM    111  C   UNL     1     154.680 164.227 190.012  0.00  0.00    +0.206 C 
ATOM    112  O   UNL     1     153.695 163.507 190.125  0.00  0.00    -0.279 OA
ATOM    113  H   UNL     1     155.569 163.842 189.485  0.00  0.00    +0.126 HD
BRANCH 110 114
ATOM    114  C   UNL     1     156.157 166.171 190.201  0.00  0.00    +0.007 C 
ATOM    115  H   UNL     1     156.728 166.239 191.135  0.00  0.00    +0.043 HD
ATOM    116  H   UNL     1     156.031 167.182 189.800  0.00  0.00    +0.043 HD
ATOM    117  H   UNL     1     156.712 165.571 189.473  0.00  0.00    +0.043 HD
ENDBRANCH 110 114
ENDBRANCH 107 110
ENDBRANCH 100 106
ENDBRANCH  98 100
BRANCH  98 118
ATOM    118  O   UNL     1     150.418 166.487 194.358  0.00  0.00    -0.461 OA
BRANCH 118 119
ATOM    119  C   UNL     1     150.309 165.397 195.172  0.00  0.00    +0.304 C 
ATOM    120  O   UNL     1     150.287 164.230 194.810  0.00  0.00    -0.251 OA
BRANCH 119 121
ATOM    121  C   UNL     1     150.183 165.825 196.603  0.00  0.00    +0.033 C 
ATOM    122  H   UNL     1     150.639 166.809 196.728  0.00  0.00    +0.034 HD
ATOM    123  H   UNL     1     150.660 165.089 197.255  0.00  0.00    +0.034 HD
ATOM    124  H   UNL     1     149.125 165.875 196.874  0.00  0.00    +0.034 HD
ENDBRANCH 119 121
ENDBRANCH 118 119
ENDBRANCH  98 118
ENDBRANCH  92  98
ENDBRANCH  90  92
BRANCH  90 125
ATOM    125  O   UNL     1     147.770 166.053 191.527  0.00  0.00    -0.459 OA
BRANCH 125 126
ATOM    126  C   UNL     1     146.414 166.263 191.620  0.00  0.00    +0.339 C 
ATOM    127  O   UNL     1     145.703 166.568 190.671  0.00  0.00    -0.248 OA
BRANCH 126 128
ATOM    128  C   UNL     1     145.891 166.152 193.062  0.00  0.00    +0.178 C 
ATOM    129  H   UNL     1     146.125 167.110 193.552  0.00  0.00    +0.074 HD
BRANCH 128 130
ATOM    130  C   UNL     1     144.370 165.983 193.036  0.00  0.00    +0.084 C 
ATOM    131  H   UNL     1     144.047 165.642 192.050  0.00  0.00    +0.059 HD
ATOM    132  H   UNL     1     144.078 165.201 193.747  0.00  0.00    +0.059 HD
BRANCH 130 133
ATOM    133  O   UNL     1     143.707 167.197 193.379  0.00  0.00    -0.380 OA
BRANCH 133 134
ATOM    134  C   UNL     1     142.352 166.971 193.741  0.00  0.00    +0.037 C 
ATOM    135  H   UNL     1     142.023 167.732 194.456  0.00  0.00    +0.052 HD
ATOM    136  H   UNL     1     141.736 167.048 192.841  0.00  0.00    +0.052 HD
ATOM    137  H   UNL     1     142.222 165.973 194.173  0.00  0.00    +0.052 HD
ENDBRANCH 133 134
ENDBRANCH 130 133
ENDBRANCH 128 130
BRANCH 128 138
ATOM    138  O   UNL     1     146.433 165.079 193.837  0.00  0.00    -0.366 OA
BRANCH 138 139
ATOM    139  C   UNL     1     146.667 165.453 195.187  0.00  0.00    +0.038 C 
ATOM    140  H   UNL     1     146.646 164.548 195.801  0.00  0.00    +0.052 HD
ATOM    141  H   UNL     1     145.878 166.126 195.540  0.00  0.00    +0.052 HD
ATOM    142  H   UNL     1     147.645 165.928 195.300  0.00  0.00    +0.052 HD
ENDBRANCH 138 139
ENDBRANCH 128 138
ENDBRANCH 126 128
ENDBRANCH 125 126
ENDBRANCH  90 125
ENDBRANCH  87  90
ENDBRANCH  84  87
ENDBRANCH  78  84
ENDBRANCH  76  78
BRANCH  76 143
ATOM    143  O   UNL     1     146.954 172.113 192.270  0.00  0.00    -0.379 OA
BRANCH 143 144
ATOM    144  C   UNL     1     145.982 173.089 191.915  0.00  0.00    +0.037 C 
ATOM    145  H   UNL     1     146.407 174.080 192.106  0.00  0.00    +0.052 HD
ATOM    146  H   UNL     1     145.063 172.986 192.502  0.00  0.00    +0.052 HD
ATOM    147  H   UNL     1     145.754 173.027 190.849  0.00  0.00    +0.052 HD
ENDBRANCH 143 144
ENDBRANCH  76 143
ENDBRANCH   1  76
TORSDOF 35
ENDMDL
MODEL 4
REMARK VINA RESULT:      -5.5      2.106      4.030
REMARK  Name = Mycalolide B_conf3
REMARK  35 active torsions:
REMARK  status: ('A' for Active; 'I' for Inactive)
REMARK    1  A    between atoms: C_1  and  C_2
REMARK    2  A    between atoms: C_3  and  O_72
REMARK    3  A    between atoms: C_22  and  O_70
REMARK    4  A    between atoms: C_23  and  C_69
REMARK    5  A    between atoms: C_29  and  O_68
REMARK    6  A    between atoms: C_34  and  C_35
REMARK    7  A    between atoms: C_35  and  C_36
REMARK    8  A    between atoms: C_36  and  C_37
REMARK    9  A    between atoms: C_36  and  O_66
REMARK   10  A    between atoms: C_37  and  C_38
REMARK   11  A    between atoms: C_37  and  C_39
REMARK   12  A    between atoms: C_39  and  C_40
REMARK   13  A    between atoms: C_40  and  C_41
REMARK   14  A    between atoms: C_41  and  C_42
REMARK   15  A    between atoms: C_41  and  O_57
REMARK   16  A    between atoms: C_42  and  C_43
REMARK   17  A    between atoms: C_42  and  C_44
REMARK   18  A    between atoms: C_44  and  C_45
REMARK   19  A    between atoms: C_44  and  O_53
REMARK   20  A    between atoms: C_45  and  C_46
REMARK   21  A    between atoms: C_45  and  C_47
REMARK   22  A    between atoms: C_48  and  N_49
REMARK   23  A    between atoms: N_49  and  C_50
REMARK   24  A    between atoms: O_53  and  C_54
REMARK   25  A    between atoms: C_54  and  C_56
REMARK   26  A    between atoms: O_57  and  C_58
REMARK   27  A    between atoms: C_58  and  C_60
REMARK   28  A    between atoms: C_60  and  C_61
REMARK   29  A    between atoms: C_60  and  O_64
REMARK   30  A    between atoms: C_61  and  O_62
REMARK   31  A    between atoms: O_62  and  C_63
REMARK   32  A    between atoms: O_64  and  C_65
REMARK   33  A    between atoms: O_66  and  C_67
REMARK   34  A    between atoms: O_70  and  C_71
REMARK   35  A    between atoms: O_72  and  C_73
REMARK                            x       y       z     vdW  Elec       q    Type
REMARK                         _______ _______ _______ _____ _____    ______ ____
ROOT
ATOM      1  C   UNL     1     145.971 166.850 186.852  0.00  0.00    +0.011 C 
ATOM      2  H   UNL     1     145.103 167.036 186.211  0.00  0.00    +0.033 HD
ATOM      3  H   UNL     1     146.743 167.586 186.599  0.00  0.00    +0.033 HD
ENDROOT
BRANCH   1  36
ATOM      4  C   UNL     1     145.444 164.431 186.072  0.00  0.00    +0.020 C 
ATOM      5  C   UNL     1     144.389 164.030 187.143  0.00  0.00    +0.068 C 
ATOM      6  C   UNL     1     144.972 163.530 188.490  0.00  0.00    -0.008 C 
ATOM      7  C   UNL     1     146.172 162.626 188.412  0.00  0.00    -0.077 C 
ATOM      8  C   UNL     1     146.212 161.420 187.825  0.00  0.00    -0.003 C 
ATOM      9  C   UNL     1     147.429 160.682 187.815  0.00  0.00    +0.220 A 
ATOM     10  N   UNL     1     148.652 161.193 187.916  0.00  0.00    -0.205 NA
ATOM     11  C   UNL     1     149.491 160.113 188.010  0.00  0.00    +0.164 A 
ATOM     12  C   UNL     1     148.771 158.956 187.908  0.00  0.00    +0.125 A 
ATOM     13  O   UNL     1     147.462 159.294 187.740  0.00  0.00    -0.443 OA
ATOM     14  C   UNL     1     151.023 160.224 188.244  0.00  0.00    +0.250 A 
ATOM     15  N   UNL     1     151.669 161.380 188.229  0.00  0.00    -0.203 NA
ATOM     16  C   UNL     1     152.955 161.053 188.578  0.00  0.00    +0.164 A 
ATOM     17  C   UNL     1     153.061 159.699 188.747  0.00  0.00    +0.125 A 
ATOM     18  O   UNL     1     151.836 159.147 188.513  0.00  0.00    -0.442 OA
ATOM     19  C   UNL     1     154.120 162.074 188.736  0.00  0.00    +0.249 A 
ATOM     20  N   UNL     1     154.006 163.357 188.436  0.00  0.00    -0.210 NA
ATOM     21  C   UNL     1     155.266 163.880 188.634  0.00  0.00    +0.109 A 
ATOM     22  C   UNL     1     156.081 162.895 189.131  0.00  0.00    +0.118 A 
ATOM     23  O   UNL     1     155.382 161.725 189.157  0.00  0.00    -0.442 OA
ATOM     24  C   UNL     1     155.578 165.315 188.321  0.00  0.00    +0.113 C 
ATOM     25  C   UNL     1     156.076 165.551 186.880  0.00  0.00    +0.051 C 
ATOM     26  C   UNL     1     154.919 165.788 185.924  0.00  0.00    +0.161 C 
ATOM     27  O   UNL     1     154.707 166.917 185.476  0.00  0.00    -0.292 OA
ATOM     28  C   UNL     1     154.024 164.652 185.563  0.00  0.00    -0.023 C 
ATOM     29  C   UNL     1     152.898 164.866 184.865  0.00  0.00    -0.078 C 
ATOM     30  C   UNL     1     151.879 163.795 184.587  0.00  0.00    -0.008 C 
ATOM     31  C   UNL     1     150.573 164.016 185.367  0.00  0.00    +0.069 C 
ATOM     32  C   UNL     1     149.771 165.206 184.844  0.00  0.00    +0.071 C 
ATOM     33  C   UNL     1     148.817 165.630 185.923  0.00  0.00    +0.310 C 
ATOM     34  O   UNL     1     149.189 166.026 187.019  0.00  0.00    -0.251 OA
ATOM     35  O   UNL     1     147.527 165.479 185.531  0.00  0.00    -0.461 OA
ATOM     36  C   UNL     1     146.518 165.434 186.575  0.00  0.00    +0.110 C 
ATOM     37  H   UNL     1     145.965 163.514 185.753  0.00  0.00    +0.036 HD
ATOM     38  H   UNL     1     143.755 164.901 187.350  0.00  0.00    +0.060 HD
ATOM     39  H   UNL     1     145.259 164.404 189.081  0.00  0.00    +0.033 HD
ATOM     40  H   UNL     1     144.201 163.017 189.077  0.00  0.00    +0.033 HD
ATOM     41  H   UNL     1     147.081 163.020 188.874  0.00  0.00    +0.057 HD
ATOM     42  H   UNL     1     145.334 160.976 187.374  0.00  0.00    +0.067 HD
ATOM     43  H   UNL     1     148.998 157.902 187.920  0.00  0.00    +0.105 HD
ATOM     44  H   UNL     1     153.859 159.018 189.016  0.00  0.00    +0.105 HD
ATOM     45  H   UNL     1     157.119 162.853 189.433  0.00  0.00    +0.105 HD
ATOM     46  H   UNL     1     154.648 165.877 188.481  0.00  0.00    +0.067 HD
ATOM     47  H   UNL     1     156.632 166.500 186.880  0.00  0.00    +0.041 HD
ATOM     48  H   UNL     1     154.270 163.667 185.939  0.00  0.00    +0.065 HD
ATOM     49  H   UNL     1     152.676 165.868 184.503  0.00  0.00    +0.057 HD
ATOM     50  H   UNL     1     151.675 163.752 183.510  0.00  0.00    +0.033 HD
ATOM     51  H   UNL     1     152.284 162.807 184.847  0.00  0.00    +0.033 HD
ATOM     52  H   UNL     1     150.806 164.130 186.433  0.00  0.00    +0.060 HD
ATOM     53  H   UNL     1     150.392 166.083 184.626  0.00  0.00    +0.040 HD
ATOM     54  H   UNL     1     149.219 164.951 183.930  0.00  0.00    +0.040 HD
ATOM     55  H   UNL     1     146.981 165.003 187.464  0.00  0.00    +0.074 HD
BRANCH   4  56
ATOM     56  C   UNL     1     144.756 164.940 184.792  0.00  0.00    -0.057 C 
ATOM     57  H   UNL     1     144.134 165.815 185.001  0.00  0.00    +0.023 HD
ATOM     58  H   UNL     1     144.120 164.171 184.351  0.00  0.00    +0.023 HD
ATOM     59  H   UNL     1     145.491 165.243 184.039  0.00  0.00    +0.023 HD
ENDBRANCH   4  56
BRANCH  25  60
ATOM     60  C   UNL     1     157.071 164.522 186.343  0.00  0.00    -0.053 C 
ATOM     61  H   UNL     1     156.586 163.712 185.789  0.00  0.00    +0.024 HD
ATOM     62  H   UNL     1     157.656 164.086 187.160  0.00  0.00    +0.024 HD
ATOM     63  H   UNL     1     157.771 165.007 185.649  0.00  0.00    +0.024 HD
ENDBRANCH  25  60
BRANCH  31  64
ATOM     64  O   UNL     1     149.763 162.844 185.230  0.00  0.00    -0.391 OA
ATOM     65  H   UNL     1     148.871 163.148 184.956  0.00  0.00    +0.210 HD
ENDBRANCH  31  64
BRANCH  24  66
ATOM     66  O   UNL     1     156.577 165.802 189.239  0.00  0.00    -0.373 OA
BRANCH  66  67
ATOM     67  C   UNL     1     156.007 166.239 190.468  0.00  0.00    +0.037 C 
ATOM     68  H   UNL     1     154.913 166.226 190.420  0.00  0.00    +0.052 HD
ATOM     69  H   UNL     1     156.352 165.608 191.295  0.00  0.00    +0.052 HD
ATOM     70  H   UNL     1     156.335 167.265 190.653  0.00  0.00    +0.052 HD
ENDBRANCH  66  67
ENDBRANCH  24  66
BRANCH   5  71
ATOM     71  O   UNL     1     143.556 162.994 186.579  0.00  0.00    -0.379 OA
BRANCH  71  72
ATOM     72  C   UNL     1     142.386 162.749 187.349  0.00  0.00    +0.037 C 
ATOM     73  H   UNL     1     141.622 162.227 186.765  0.00  0.00    +0.052 HD
ATOM     74  H   UNL     1     141.982 163.715 187.668  0.00  0.00    +0.052 HD
ATOM     75  H   UNL     1     142.636 162.167 188.242  0.00  0.00    +0.052 HD
ENDBRANCH  71  72
ENDBRANCH   5  71
ENDBRANCH   1  36
BRANCH   1  76
ATOM     76  C   UNL     1     145.507 167.066 188.302  0.00  0.00    +0.064 C 
ATOM     77  H   UNL     1     144.967 166.182 188.655  0.00  0.00    +0.060 HD
BRANCH  76  78
ATOM     78  C   UNL     1     146.676 167.372 189.280  0.00  0.00    -0.017 C 
ATOM     79  H   UNL     1     147.490 167.796 188.691  0.00  0.00    +0.032 HD
BRANCH  78  80
ATOM     80  C   UNL     1     146.218 168.470 190.271  0.00  0.00    -0.060 C 
ATOM     81  H   UNL     1     145.317 168.157 190.812  0.00  0.00    +0.023 HD
ATOM     82  H   UNL     1     146.984 168.674 191.024  0.00  0.00    +0.023 HD
ATOM     83  H   UNL     1     145.990 169.401 189.743  0.00  0.00    +0.023 HD
ENDBRANCH  78  80
BRANCH  78  84
ATOM     84  C   UNL     1     147.199 166.200 190.127  0.00  0.00    -0.045 C 
ATOM     85  H   UNL     1     146.601 166.147 191.050  0.00  0.00    +0.027 HD
ATOM     86  H   UNL     1     146.987 165.254 189.601  0.00  0.00    +0.027 HD
BRANCH  84  87
ATOM     87  C   UNL     1     148.664 166.175 190.596  0.00  0.00    -0.015 C 
ATOM     88  H   UNL     1     149.078 165.284 190.112  0.00  0.00    +0.030 HD
ATOM     89  H   UNL     1     149.212 167.017 190.159  0.00  0.00    +0.030 HD
BRANCH  87  90
ATOM     90  C   UNL     1     148.993 166.095 192.106  0.00  0.00    +0.109 C 
ATOM     91  H   UNL     1     148.897 165.042 192.401  0.00  0.00    +0.074 HD
BRANCH  90  92
ATOM     92  C   UNL     1     148.009 166.982 192.951  0.00  0.00    +0.031 C 
ATOM     93  H   UNL     1     147.120 167.162 192.334  0.00  0.00    +0.037 HD
BRANCH  92  94
ATOM     94  C   UNL     1     148.571 168.394 193.204  0.00  0.00    -0.056 C 
ATOM     95  H   UNL     1     149.182 168.735 192.367  0.00  0.00    +0.023 HD
ATOM     96  H   UNL     1     149.167 168.430 194.120  0.00  0.00    +0.023 HD
ATOM     97  H   UNL     1     147.758 169.125 193.302  0.00  0.00    +0.023 HD
ENDBRANCH  92  94
BRANCH  92  98
ATOM     98  C   UNL     1     147.572 166.399 194.335  0.00  0.00    +0.115 C 
ATOM     99  H   UNL     1     147.847 167.122 195.117  0.00  0.00    +0.074 HD
BRANCH  98 100
ATOM    100  C   UNL     1     146.041 166.180 194.526  0.00  0.00    +0.013 C 
ATOM    101  H   UNL     1     145.657 166.873 195.278  0.00  0.00    +0.038 HD
BRANCH 100 102
ATOM    102  C   UNL     1     145.716 164.748 194.976  0.00  0.00    -0.056 C 
ATOM    103  H   UNL     1     146.416 164.400 195.748  0.00  0.00    +0.024 HD
ATOM    104  H   UNL     1     144.701 164.680 195.393  0.00  0.00    +0.024 HD
ATOM    105  H   UNL     1     145.785 164.043 194.142  0.00  0.00    +0.024 HD
ENDBRANCH 100 102
BRANCH 100 106
ATOM    106  C   UNL     1     145.287 166.443 193.232  0.00  0.00    -0.064 C 
ATOM    107  C   UNL     1     143.949 166.476 193.150  0.00  0.00    -0.005 C 
ATOM    108  H   UNL     1     145.904 166.590 192.348  0.00  0.00    +0.059 HD
ATOM    109  H   UNL     1     143.375 166.288 194.056  0.00  0.00    +0.078 HD
BRANCH 107 110
ATOM    110  N   UNL     1     143.179 166.699 192.020  0.00  0.00    -0.284 N 
ATOM    111  C   UNL     1     142.725 167.945 191.585  0.00  0.00    +0.206 C 
ATOM    112  O   UNL     1     142.909 169.049 192.084  0.00  0.00    -0.279 OA
ATOM    113  H   UNL     1     142.120 167.864 190.666  0.00  0.00    +0.126 HD
BRANCH 110 114
ATOM    114  C   UNL     1     142.817 165.524 191.231  0.00  0.00    +0.007 C 
ATOM    115  H   UNL     1     143.360 165.554 190.279  0.00  0.00    +0.043 HD
ATOM    116  H   UNL     1     141.744 165.493 191.014  0.00  0.00    +0.043 HD
ATOM    117  H   UNL     1     143.090 164.620 191.782  0.00  0.00    +0.043 HD
ENDBRANCH 110 114
ENDBRANCH 107 110
ENDBRANCH 100 106
ENDBRANCH  98 100
BRANCH  98 118
ATOM    118  O   UNL     1     148.249 165.142 194.576  0.00  0.00    -0.461 OA
BRANCH 118 119
ATOM    119  C   UNL     1     149.320 165.186 195.419  0.00  0.00    +0.304 C 
ATOM    120  O   UNL     1     150.354 164.545 195.299  0.00  0.00    -0.251 OA
BRANCH 119 121
ATOM    121  C   UNL     1     149.049 166.117 196.561  0.00  0.00    +0.033 C 
ATOM    122  H   UNL     1     149.878 166.820 196.659  0.00  0.00    +0.034 HD
ATOM    123  H   UNL     1     148.913 165.546 197.484  0.00  0.00    +0.034 HD
ATOM    124  H   UNL     1     148.124 166.666 196.370  0.00  0.00    +0.034 HD
ENDBRANCH 119 121
ENDBRANCH 118 119
ENDBRANCH  98 118
ENDBRANCH  92  98
ENDBRANCH  90  92
BRANCH  90 125
ATOM    125  O   UNL     1     150.365 166.520 192.315  0.00  0.00    -0.459 OA
BRANCH 125 126
ATOM    126  C   UNL     1     151.237 166.295 191.276  0.00  0.00    +0.339 C 
ATOM    127  O   UNL     1     151.679 165.192 190.980  0.00  0.00    -0.248 OA
BRANCH 126 128
ATOM    128  C   UNL     1     151.666 167.591 190.566  0.00  0.00    +0.178 C 
ATOM    129  H   UNL     1     150.781 167.952 190.017  0.00  0.00    +0.074 HD
BRANCH 128 130
ATOM    130  C   UNL     1     152.045 168.640 191.614  0.00  0.00    +0.084 C 
ATOM    131  H   UNL     1     151.432 168.513 192.509  0.00  0.00    +0.059 HD
ATOM    132  H   UNL     1     153.085 168.485 191.923  0.00  0.00    +0.059 HD
BRANCH 130 133
ATOM    133  O   UNL     1     151.900 169.962 191.101  0.00  0.00    -0.380 OA
BRANCH 133 134
ATOM    134  C   UNL     1     150.828 170.653 191.727  0.00  0.00    +0.037 C 
ATOM    135  H   UNL     1     151.207 171.258 192.557  0.00  0.00    +0.052 HD
ATOM    136  H   UNL     1     150.369 171.318 190.990  0.00  0.00    +0.052 HD
ATOM    137  H   UNL     1     150.069 169.953 192.092  0.00  0.00    +0.052 HD
ENDBRANCH 133 134
ENDBRANCH 130 133
ENDBRANCH 128 130
BRANCH 128 138
ATOM    138  O   UNL     1     152.765 167.466 189.661  0.00  0.00    -0.366 OA
BRANCH 138 139
ATOM    139  C   UNL     1     152.342 167.203 188.330  0.00  0.00    +0.038 C 
ATOM    140  H   UNL     1     151.561 166.437 188.365  0.00  0.00    +0.052 HD
ATOM    141  H   UNL     1     153.175 166.816 187.733  0.00  0.00    +0.052 HD
ATOM    142  H   UNL     1     151.929 168.101 187.863  0.00  0.00    +0.052 HD
ENDBRANCH 138 139
ENDBRANCH 128 138
ENDBRANCH 126 128
ENDBRANCH 125 126
ENDBRANCH  90 125
ENDBRANCH  87  90
ENDBRANCH  84  87
ENDBRANCH  78  84
ENDBRANCH  76  78
BRANCH  76 143
ATOM    143  O   UNL     1     144.665 168.235 188.310  0.00  0.00    -0.379 OA
BRANCH 143 144
ATOM    144  C   UNL     1     143.333 167.990 187.877  0.00  0.00    +0.037 C 
ATOM    145  H   UNL     1     143.374 167.330 187.003  0.00  0.00    +0.052 HD
ATOM    146  H   UNL     1     142.817 168.913 187.591  0.00  0.00    +0.052 HD
ATOM    147  H   UNL     1     142.770 167.472 188.656  0.00  0.00    +0.052 HD
ENDBRANCH 143 144
ENDBRANCH  76 143
ENDBRANCH   1  76
TORSDOF 35
ENDMDL
MODEL 5
REMARK VINA RESULT:      -5.5      2.667      8.756
REMARK  Name = Mycalolide B_conf3
REMARK  35 active torsions:
REMARK  status: ('A' for Active; 'I' for Inactive)
REMARK    1  A    between atoms: C_1  and  C_2
REMARK    2  A    between atoms: C_3  and  O_72
REMARK    3  A    between atoms: C_22  and  O_70
REMARK    4  A    between atoms: C_23  and  C_69
REMARK    5  A    between atoms: C_29  and  O_68
REMARK    6  A    between atoms: C_34  and  C_35
REMARK    7  A    between atoms: C_35  and  C_36
REMARK    8  A    between atoms: C_36  and  C_37
REMARK    9  A    between atoms: C_36  and  O_66
REMARK   10  A    between atoms: C_37  and  C_38
REMARK   11  A    between atoms: C_37  and  C_39
REMARK   12  A    between atoms: C_39  and  C_40
REMARK   13  A    between atoms: C_40  and  C_41
REMARK   14  A    between atoms: C_41  and  C_42
REMARK   15  A    between atoms: C_41  and  O_57
REMARK   16  A    between atoms: C_42  and  C_43
REMARK   17  A    between atoms: C_42  and  C_44
REMARK   18  A    between atoms: C_44  and  C_45
REMARK   19  A    between atoms: C_44  and  O_53
REMARK   20  A    between atoms: C_45  and  C_46
REMARK   21  A    between atoms: C_45  and  C_47
REMARK   22  A    between atoms: C_48  and  N_49
REMARK   23  A    between atoms: N_49  and  C_50
REMARK   24  A    between atoms: O_53  and  C_54
REMARK   25  A    between atoms: C_54  and  C_56
REMARK   26  A    between atoms: O_57  and  C_58
REMARK   27  A    between atoms: C_58  and  C_60
REMARK   28  A    between atoms: C_60  and  C_61
REMARK   29  A    between atoms: C_60  and  O_64
REMARK   30  A    between atoms: C_61  and  O_62
REMARK   31  A    between atoms: O_62  and  C_63
REMARK   32  A    between atoms: O_64  and  C_65
REMARK   33  A    between atoms: O_66  and  C_67
REMARK   34  A    between atoms: O_70  and  C_71
REMARK   35  A    between atoms: O_72  and  C_73
REMARK                            x       y       z     vdW  Elec       q    Type
REMARK                         _______ _______ _______ _____ _____    ______ ____
ROOT
ATOM      1  C   UNL     1     154.939 164.464 189.964  0.00  0.00    +0.011 C 
ATOM      2  H   UNL     1     156.027 164.579 190.013  0.00  0.00    +0.033 HD
ATOM      3  H   UNL     1     154.650 163.675 190.668  0.00  0.00    +0.033 HD
ENDROOT
BRANCH   1  36
ATOM      4  C   UNL     1     155.702 164.064 187.515  0.00  0.00    +0.020 C 
ATOM      5  C   UNL     1     156.210 165.490 187.158  0.00  0.00    +0.068 C 
ATOM      6  C   UNL     1     155.112 166.491 186.713  0.00  0.00    -0.008 C 
ATOM      7  C   UNL     1     154.038 165.954 185.807  0.00  0.00    -0.077 C 
ATOM      8  C   UNL     1     154.226 165.449 184.577  0.00  0.00    -0.003 C 
ATOM      9  C   UNL     1     153.110 164.961 183.839  0.00  0.00    +0.220 A 
ATOM     10  N   UNL     1     151.964 164.526 184.354  0.00  0.00    -0.205 NA
ATOM     11  C   UNL     1     151.143 164.303 183.279  0.00  0.00    +0.164 A 
ATOM     12  C   UNL     1     151.822 164.552 182.119  0.00  0.00    +0.125 A 
ATOM     13  O   UNL     1     153.088 164.930 182.450  0.00  0.00    -0.443 OA
ATOM     14  C   UNL     1     149.655 163.874 183.399  0.00  0.00    +0.250 A 
ATOM     15  N   UNL     1     149.093 163.550 184.554  0.00  0.00    -0.203 NA
ATOM     16  C   UNL     1     147.773 163.345 184.241  0.00  0.00    +0.164 A 
ATOM     17  C   UNL     1     147.584 163.504 182.895  0.00  0.00    +0.125 A 
ATOM     18  O   UNL     1     148.786 163.821 182.334  0.00  0.00    -0.442 OA
ATOM     19  C   UNL     1     146.665 162.966 185.268  0.00  0.00    +0.249 A 
ATOM     20  N   UNL     1     146.915 162.695 186.538  0.00  0.00    -0.210 NA
ATOM     21  C   UNL     1     145.695 162.331 187.068  0.00  0.00    +0.109 A 
ATOM     22  C   UNL     1     144.731 162.480 186.103  0.00  0.00    +0.118 A 
ATOM     23  O   UNL     1     145.336 162.838 184.936  0.00  0.00    -0.442 OA
ATOM     24  C   UNL     1     145.565 161.864 188.489  0.00  0.00    +0.113 C 
ATOM     25  C   UNL     1     145.715 160.339 188.666  0.00  0.00    +0.051 C 
ATOM     26  C   UNL     1     147.168 159.942 188.865  0.00  0.00    +0.161 C 
ATOM     27  O   UNL     1     147.566 159.581 189.974  0.00  0.00    -0.292 OA
ATOM     28  C   UNL     1     148.113 160.028 187.714  0.00  0.00    -0.023 C 
ATOM     29  C   UNL     1     149.431 159.853 187.900  0.00  0.00    -0.078 C 
ATOM     30  C   UNL     1     150.454 160.063 186.819  0.00  0.00    -0.008 C 
ATOM     31  C   UNL     1     151.322 161.307 187.071  0.00  0.00    +0.069 C 
ATOM     32  C   UNL     1     152.289 161.121 188.239  0.00  0.00    +0.071 C 
ATOM     33  C   UNL     1     152.716 162.482 188.707  0.00  0.00    +0.310 C 
ATOM     34  O   UNL     1     151.929 163.309 189.147  0.00  0.00    -0.251 OA
ATOM     35  O   UNL     1     154.049 162.668 188.540  0.00  0.00    -0.461 OA
ATOM     36  C   UNL     1     154.533 164.037 188.538  0.00  0.00    +0.110 C 
ATOM     37  H   UNL     1     155.345 163.591 186.586  0.00  0.00    +0.036 HD
ATOM     38  H   UNL     1     156.716 165.910 188.037  0.00  0.00    +0.060 HD
ATOM     39  H   UNL     1     154.620 166.876 187.610  0.00  0.00    +0.033 HD
ATOM     40  H   UNL     1     155.561 167.363 186.225  0.00  0.00    +0.033 HD
ATOM     41  H   UNL     1     153.026 165.982 186.219  0.00  0.00    +0.057 HD
ATOM     42  H   UNL     1     155.204 165.420 184.116  0.00  0.00    +0.067 HD
ATOM     43  H   UNL     1     151.592 164.507 181.066  0.00  0.00    +0.105 HD
ATOM     44  H   UNL     1     146.734 163.442 182.225  0.00  0.00    +0.105 HD
ATOM     45  H   UNL     1     143.660 162.325 186.074  0.00  0.00    +0.105 HD
ATOM     46  H   UNL     1     146.354 162.376 189.057  0.00  0.00    +0.067 HD
ATOM     47  H   UNL     1     145.224 160.073 189.614  0.00  0.00    +0.041 HD
ATOM     48  H   UNL     1     147.716 160.303 186.746  0.00  0.00    +0.065 HD
ATOM     49  H   UNL     1     149.800 159.579 188.887  0.00  0.00    +0.057 HD
ATOM     50  H   UNL     1     151.086 159.171 186.733  0.00  0.00    +0.033 HD
ATOM     51  H   UNL     1     149.962 160.168 185.843  0.00  0.00    +0.033 HD
ATOM     52  H   UNL     1     150.670 162.175 187.228  0.00  0.00    +0.060 HD
ATOM     53  H   UNL     1     151.829 160.632 189.107  0.00  0.00    +0.040 HD
ATOM     54  H   UNL     1     153.166 160.529 187.948  0.00  0.00    +0.040 HD
ATOM     55  H   UNL     1     153.736 164.669 188.143  0.00  0.00    +0.074 HD
BRANCH   4  56
ATOM     56  C   UNL     1     156.868 163.167 187.972  0.00  0.00    -0.057 C 
ATOM     57  H   UNL     1     156.613 162.628 188.890  0.00  0.00    +0.023 HD
ATOM     58  H   UNL     1     157.768 163.753 188.164  0.00  0.00    +0.023 HD
ATOM     59  H   UNL     1     157.111 162.414 187.216  0.00  0.00    +0.023 HD
ENDBRANCH   4  56
BRANCH  25  60
ATOM     60  C   UNL     1     145.015 159.475 187.617  0.00  0.00    -0.053 C 
ATOM     61  H   UNL     1     144.118 159.950 187.206  0.00  0.00    +0.024 HD
ATOM     62  H   UNL     1     144.734 158.504 188.038  0.00  0.00    +0.024 HD
ATOM     63  H   UNL     1     145.693 159.292 186.772  0.00  0.00    +0.024 HD
ENDBRANCH  25  60
BRANCH  31  64
ATOM     64  O   UNL     1     152.097 161.562 185.895  0.00  0.00    -0.391 OA
ATOM     65  H   UNL     1     151.851 162.460 185.585  0.00  0.00    +0.210 HD
ENDBRANCH  31  64
BRANCH  24  66
ATOM     66  O   UNL     1     144.283 162.266 189.012  0.00  0.00    -0.373 OA
BRANCH  66  67
ATOM     67  C   UNL     1     144.268 163.637 189.396  0.00  0.00    +0.037 C 
ATOM     68  H   UNL     1     144.831 164.249 188.686  0.00  0.00    +0.052 HD
ATOM     69  H   UNL     1     143.237 164.001 189.469  0.00  0.00    +0.052 HD
ATOM     70  H   UNL     1     144.738 163.723 190.379  0.00  0.00    +0.052 HD
ENDBRANCH  66  67
ENDBRANCH  24  66
BRANCH   5  71
ATOM     71  O   UNL     1     157.185 165.361 186.100  0.00  0.00    -0.379 OA
BRANCH  71  72
ATOM     72  C   UNL     1     157.985 166.527 185.945  0.00  0.00    +0.037 C 
ATOM     73  H   UNL     1     157.530 167.237 185.249  0.00  0.00    +0.052 HD
ATOM     74  H   UNL     1     158.956 166.219 185.544  0.00  0.00    +0.052 HD
ATOM     75  H   UNL     1     158.148 167.006 186.916  0.00  0.00    +0.052 HD
ENDBRANCH  71  72
ENDBRANCH   5  71
ENDBRANCH   1  36
BRANCH   1  76
ATOM     76  C   UNL     1     154.330 165.803 190.411  0.00  0.00    +0.064 C 
ATOM     77  H   UNL     1     153.876 166.310 189.554  0.00  0.00    +0.060 HD
BRANCH  76  78
ATOM     78  C   UNL     1     153.265 165.648 191.532  0.00  0.00    -0.017 C 
ATOM     79  H   UNL     1     153.341 164.629 191.913  0.00  0.00    +0.032 HD
BRANCH  78  80
ATOM     80  C   UNL     1     153.635 166.593 192.701  0.00  0.00    -0.060 C 
ATOM     81  H   UNL     1     153.359 166.150 193.665  0.00  0.00    +0.023 HD
ATOM     82  H   UNL     1     154.711 166.783 192.738  0.00  0.00    +0.023 HD
ATOM     83  H   UNL     1     153.115 167.552 192.607  0.00  0.00    +0.023 HD
ENDBRANCH  78  80
BRANCH  78  84
ATOM     84  C   UNL     1     151.807 165.958 191.155  0.00  0.00    -0.045 C 
ATOM     85  H   UNL     1     151.762 166.987 190.765  0.00  0.00    +0.027 HD
ATOM     86  H   UNL     1     151.513 165.323 190.303  0.00  0.00    +0.027 HD
BRANCH  84  87
ATOM     87  C   UNL     1     150.698 165.884 192.218  0.00  0.00    -0.015 C 
ATOM     88  H   UNL     1     150.445 164.819 192.258  0.00  0.00    +0.030 HD
ATOM     89  H   UNL     1     151.110 166.116 193.207  0.00  0.00    +0.030 HD
BRANCH  87  90
ATOM     90  C   UNL     1     149.384 166.680 192.025  0.00  0.00    +0.109 C 
ATOM     91  H   UNL     1     148.596 165.950 191.803  0.00  0.00    +0.074 HD
BRANCH  90  92
ATOM     92  C   UNL     1     149.511 167.711 190.845  0.00  0.00    +0.031 C 
ATOM     93  H   UNL     1     150.485 167.543 190.369  0.00  0.00    +0.037 HD
BRANCH  92  94
ATOM     94  C   UNL     1     149.596 169.164 191.350  0.00  0.00    -0.056 C 
ATOM     95  H   UNL     1     148.828 169.790 190.895  0.00  0.00    +0.023 HD
ATOM     96  H   UNL     1     150.578 169.600 191.151  0.00  0.00    +0.023 HD
ATOM     97  H   UNL     1     149.422 169.210 192.433  0.00  0.00    +0.023 HD
ENDBRANCH  92  94
BRANCH  92  98
ATOM     98  C   UNL     1     148.386 167.658 189.761  0.00  0.00    +0.115 C 
ATOM     99  H   UNL     1     148.243 168.673 189.361  0.00  0.00    +0.074 HD
BRANCH  98 100
ATOM    100  C   UNL     1     148.692 166.784 188.507  0.00  0.00    +0.013 C 
ATOM    101  H   UNL     1     148.485 165.734 188.725  0.00  0.00    +0.038 HD
BRANCH 100 102
ATOM    102  C   UNL     1     150.158 166.907 188.066  0.00  0.00    -0.056 C 
ATOM    103  H   UNL     1     150.848 166.681 188.891  0.00  0.00    +0.024 HD
ATOM    104  H   UNL     1     150.388 166.214 187.243  0.00  0.00    +0.024 HD
ATOM    105  H   UNL     1     150.388 167.920 187.725  0.00  0.00    +0.024 HD
ENDBRANCH 100 102
BRANCH 100 106
ATOM    106  C   UNL     1     147.817 167.192 187.332  0.00  0.00    -0.064 C 
ATOM    107  C   UNL     1     147.147 166.314 186.571  0.00  0.00    -0.005 C 
ATOM    108  H   UNL     1     147.774 168.259 187.123  0.00  0.00    +0.059 HD
ATOM    109  H   UNL     1     147.250 165.254 186.799  0.00  0.00    +0.078 HD
BRANCH 107 110
ATOM    110  N   UNL     1     146.337 166.589 185.482  0.00  0.00    -0.284 N 
ATOM    111  C   UNL     1     146.787 166.877 184.192  0.00  0.00    +0.206 C 
ATOM    112  O   UNL     1     147.938 166.937 183.773  0.00  0.00    -0.279 OA
ATOM    113  H   UNL     1     145.952 167.073 183.499  0.00  0.00    +0.126 HD
BRANCH 110 114
ATOM    114  C   UNL     1     144.895 166.578 185.716  0.00  0.00    +0.007 C 
ATOM    115  H   UNL     1     144.711 166.582 186.797  0.00  0.00    +0.043 HD
ATOM    116  H   UNL     1     144.419 165.690 185.288  0.00  0.00    +0.043 HD
ATOM    117  H   UNL     1     144.449 167.469 185.264  0.00  0.00    +0.043 HD
ENDBRANCH 110 114
ENDBRANCH 107 110
ENDBRANCH 100 106
ENDBRANCH  98 100
BRANCH  98 118
ATOM    118  O   UNL     1     147.151 167.191 190.355  0.00  0.00    -0.461 OA
BRANCH 118 119
ATOM    119  C   UNL     1     146.128 168.092 190.405  0.00  0.00    +0.304 C 
ATOM    120  O   UNL     1     146.161 169.187 190.946  0.00  0.00    -0.251 OA
BRANCH 119 121
ATOM    121  C   UNL     1     144.912 167.539 189.725  0.00  0.00    +0.033 C 
ATOM    122  H   UNL     1     144.338 166.944 190.438  0.00  0.00    +0.034 HD
ATOM    123  H   UNL     1     145.209 166.934 188.864  0.00  0.00    +0.034 HD
ATOM    124  H   UNL     1     144.296 168.363 189.357  0.00  0.00    +0.034 HD
ENDBRANCH 119 121
ENDBRANCH 118 119
ENDBRANCH  98 118
ENDBRANCH  92  98
ENDBRANCH  90  92
BRANCH  90 125
ATOM    125  O   UNL     1     149.059 167.365 193.263  0.00  0.00    -0.459 OA
BRANCH 125 126
ATOM    126  C   UNL     1     147.883 166.994 193.872  0.00  0.00    +0.339 C 
ATOM    127  O   UNL     1     146.886 167.703 193.921  0.00  0.00    -0.248 OA
BRANCH 126 128
ATOM    128  C   UNL     1     147.975 165.622 194.561  0.00  0.00    +0.178 C 
ATOM    129  H   UNL     1     148.925 165.171 194.231  0.00  0.00    +0.074 HD
BRANCH 128 130
ATOM    130  C   UNL     1     148.037 165.820 196.077  0.00  0.00    +0.084 C 
ATOM    131  H   UNL     1     148.131 166.882 196.313  0.00  0.00    +0.059 HD
ATOM    132  H   UNL     1     147.095 165.483 196.527  0.00  0.00    +0.059 HD
BRANCH 130 133
ATOM    133  O   UNL     1     149.117 165.089 196.652  0.00  0.00    -0.380 OA
BRANCH 133 134
ATOM    134  C   UNL     1     150.376 165.603 196.241  0.00  0.00    +0.037 C 
ATOM    135  H   UNL     1     150.558 166.572 196.718  0.00  0.00    +0.052 HD
ATOM    136  H   UNL     1     151.155 164.906 196.559  0.00  0.00    +0.052 HD
ATOM    137  H   UNL     1     150.421 165.710 195.153  0.00  0.00    +0.052 HD
ENDBRANCH 133 134
ENDBRANCH 130 133
ENDBRANCH 128 130
BRANCH 128 138
ATOM    138  O   UNL     1     146.902 164.718 194.285  0.00  0.00    -0.366 OA
BRANCH 138 139
ATOM    139  C   UNL     1     145.746 165.000 195.061  0.00  0.00    +0.038 C 
ATOM    140  H   UNL     1     145.212 165.830 194.589  0.00  0.00    +0.052 HD
ATOM    141  H   UNL     1     146.030 165.306 196.073  0.00  0.00    +0.052 HD
ATOM    142  H   UNL     1     145.078 164.136 195.102  0.00  0.00    +0.052 HD
ENDBRANCH 138 139
ENDBRANCH 128 138
ENDBRANCH 126 128
ENDBRANCH 125 126
ENDBRANCH  90 125
ENDBRANCH  87  90
ENDBRANCH  84  87
ENDBRANCH  78  84
ENDBRANCH  76  78
BRANCH  76 143
ATOM    143  O   UNL     1     155.396 166.587 190.981  0.00  0.00    -0.379 OA
BRANCH 143 144
ATOM    144  C   UNL     1     156.697 166.122 190.645  0.00  0.00    +0.037 C 
ATOM    145  H   UNL     1     157.084 165.546 191.494  0.00  0.00    +0.052 HD
ATOM    146  H   UNL     1     157.389 166.946 190.441  0.00  0.00    +0.052 HD
ATOM    147  H   UNL     1     156.650 165.451 189.785  0.00  0.00    +0.052 HD
ENDBRANCH 143 144
ENDBRANCH  76 143
ENDBRANCH   1  76
TORSDOF 35
ENDMDL
MODEL 6
REMARK VINA RESULT:      -5.5      2.583     10.121
REMARK  Name = Mycalolide B_conf3
REMARK  35 active torsions:
REMARK  status: ('A' for Active; 'I' for Inactive)
REMARK    1  A    between atoms: C_1  and  C_2
REMARK    2  A    between atoms: C_3  and  O_72
REMARK    3  A    between atoms: C_22  and  O_70
REMARK    4  A    between atoms: C_23  and  C_69
REMARK    5  A    between atoms: C_29  and  O_68
REMARK    6  A    between atoms: C_34  and  C_35
REMARK    7  A    between atoms: C_35  and  C_36
REMARK    8  A    between atoms: C_36  and  C_37
REMARK    9  A    between atoms: C_36  and  O_66
REMARK   10  A    between atoms: C_37  and  C_38
REMARK   11  A    between atoms: C_37  and  C_39
REMARK   12  A    between atoms: C_39  and  C_40
REMARK   13  A    between atoms: C_40  and  C_41
REMARK   14  A    between atoms: C_41  and  C_42
REMARK   15  A    between atoms: C_41  and  O_57
REMARK   16  A    between atoms: C_42  and  C_43
REMARK   17  A    between atoms: C_42  and  C_44
REMARK   18  A    between atoms: C_44  and  C_45
REMARK   19  A    between atoms: C_44  and  O_53
REMARK   20  A    between atoms: C_45  and  C_46
REMARK   21  A    between atoms: C_45  and  C_47
REMARK   22  A    between atoms: C_48  and  N_49
REMARK   23  A    between atoms: N_49  and  C_50
REMARK   24  A    between atoms: O_53  and  C_54
REMARK   25  A    between atoms: C_54  and  C_56
REMARK   26  A    between atoms: O_57  and  C_58
REMARK   27  A    between atoms: C_58  and  C_60
REMARK   28  A    between atoms: C_60  and  C_61
REMARK   29  A    between atoms: C_60  and  O_64
REMARK   30  A    between atoms: C_61  and  O_62
REMARK   31  A    between atoms: O_62  and  C_63
REMARK   32  A    between atoms: O_64  and  C_65
REMARK   33  A    between atoms: O_66  and  C_67
REMARK   34  A    between atoms: O_70  and  C_71
REMARK   35  A    between atoms: O_72  and  C_73
REMARK                            x       y       z     vdW  Elec       q    Type
REMARK                         _______ _______ _______ _____ _____    ______ ____
ROOT
ATOM      1  C   UNL     1     152.284 164.671 185.896  0.00  0.00    +0.011 C 
ATOM      2  H   UNL     1     153.256 164.996 185.508  0.00  0.00    +0.033 HD
ATOM      3  H   UNL     1     151.525 164.897 185.139  0.00  0.00    +0.033 HD
ENDROOT
BRANCH   1  36
ATOM      4  C   UNL     1     153.207 166.053 187.891  0.00  0.00    +0.020 C 
ATOM      5  C   UNL     1     154.143 164.992 188.539  0.00  0.00    +0.068 C 
ATOM      6  C   UNL     1     153.443 163.984 189.487  0.00  0.00    -0.008 C 
ATOM      7  C   UNL     1     152.385 164.540 190.401  0.00  0.00    -0.077 C 
ATOM      8  C   UNL     1     152.576 165.466 191.353  0.00  0.00    -0.003 C 
ATOM      9  C   UNL     1     151.472 165.910 192.134  0.00  0.00    +0.220 A 
ATOM     10  N   UNL     1     150.193 165.869 191.771  0.00  0.00    -0.205 NA
ATOM     11  C   UNL     1     149.487 166.255 192.882  0.00  0.00    +0.164 A 
ATOM     12  C   UNL     1     150.351 166.582 193.889  0.00  0.00    +0.125 A 
ATOM     13  O   UNL     1     151.619 166.412 193.422  0.00  0.00    -0.443 OA
ATOM     14  C   UNL     1     147.936 166.265 192.962  0.00  0.00    +0.250 A 
ATOM     15  N   UNL     1     147.162 166.035 191.912  0.00  0.00    -0.203 NA
ATOM     16  C   UNL     1     145.889 166.029 192.425  0.00  0.00    +0.164 A 
ATOM     17  C   UNL     1     145.927 166.304 193.765  0.00  0.00    +0.125 A 
ATOM     18  O   UNL     1     147.231 166.482 194.123  0.00  0.00    -0.442 OA
ATOM     19  C   UNL     1     144.598 165.768 191.595  0.00  0.00    +0.249 A 
ATOM     20  N   UNL     1     144.595 165.635 190.279  0.00  0.00    -0.210 NA
ATOM     21  C   UNL     1     143.265 165.506 189.940  0.00  0.00    +0.109 A 
ATOM     22  C   UNL     1     142.515 165.483 191.089  0.00  0.00    +0.118 A 
ATOM     23  O   UNL     1     143.341 165.697 192.151  0.00  0.00    -0.442 OA
ATOM     24  C   UNL     1     142.827 165.413 188.507  0.00  0.00    +0.113 C 
ATOM     25  C   UNL     1     142.511 166.775 187.856  0.00  0.00    +0.051 C 
ATOM     26  C   UNL     1     143.752 167.399 187.241  0.00  0.00    +0.161 C 
ATOM     27  O   UNL     1     143.885 167.436 186.016  0.00  0.00    -0.292 OA
ATOM     28  C   UNL     1     144.821 167.932 188.133  0.00  0.00    -0.023 C 
ATOM     29  C   UNL     1     145.999 168.327 187.626  0.00  0.00    -0.078 C 
ATOM     30  C   UNL     1     147.169 168.741 188.474  0.00  0.00    -0.008 C 
ATOM     31  C   UNL     1     148.316 167.719 188.423  0.00  0.00    +0.069 C 
ATOM     32  C   UNL     1     149.032 167.706 187.074  0.00  0.00    +0.071 C 
ATOM     33  C   UNL     1     149.767 166.403 186.952  0.00  0.00    +0.310 C 
ATOM     34  O   UNL     1     149.200 165.319 186.959  0.00  0.00    -0.251 OA
ATOM     35  O   UNL     1     151.107 166.595 186.877  0.00  0.00    -0.461 OA
ATOM     36  C   UNL     1     151.959 165.459 187.183  0.00  0.00    +0.110 C 
ATOM     37  H   UNL     1     152.852 166.722 188.691  0.00  0.00    +0.036 HD
ATOM     38  H   UNL     1     154.631 164.423 187.738  0.00  0.00    +0.060 HD
ATOM     39  H   UNL     1     152.971 163.212 188.873  0.00  0.00    +0.033 HD
ATOM     40  H   UNL     1     154.181 163.460 190.104  0.00  0.00    +0.033 HD
ATOM     41  H   UNL     1     151.380 164.142 190.243  0.00  0.00    +0.057 HD
ATOM     42  H   UNL     1     153.556 165.874 191.564  0.00  0.00    +0.067 HD
ATOM     43  H   UNL     1     150.255 166.933 194.905  0.00  0.00    +0.105 HD
ATOM     44  H   UNL     1     145.189 166.398 194.552  0.00  0.00    +0.105 HD
ATOM     45  H   UNL     1     141.458 165.390 191.300  0.00  0.00    +0.105 HD
ATOM     46  H   UNL     1     143.650 164.931 187.962  0.00  0.00    +0.067 HD
ATOM     47  H   UNL     1     141.847 166.579 187.000  0.00  0.00    +0.041 HD
ATOM     48  H   UNL     1     144.646 167.924 189.201  0.00  0.00    +0.065 HD
ATOM     49  H   UNL     1     146.145 168.321 186.547  0.00  0.00    +0.057 HD
ATOM     50  H   UNL     1     147.525 169.727 188.153  0.00  0.00    +0.033 HD
ATOM     51  H   UNL     1     146.856 168.870 189.519  0.00  0.00    +0.033 HD
ATOM     52  H   UNL     1     147.925 166.726 188.676  0.00  0.00    +0.060 HD
ATOM     53  H   UNL     1     148.345 167.748 186.220  0.00  0.00    +0.040 HD
ATOM     54  H   UNL     1     149.733 168.546 186.980  0.00  0.00    +0.040 HD
ATOM     55  H   UNL     1     151.433 164.838 187.909  0.00  0.00    +0.074 HD
BRANCH   4  56
ATOM     56  C   UNL     1     154.000 166.978 186.948  0.00  0.00    -0.057 C 
ATOM     57  H   UNL     1     153.865 168.028 187.223  0.00  0.00    +0.023 HD
ATOM     58  H   UNL     1     153.680 166.856 185.912  0.00  0.00    +0.023 HD
ATOM     59  H   UNL     1     155.073 166.770 186.997  0.00  0.00    +0.023 HD
ENDBRANCH   4  56
BRANCH  25  60
ATOM     60  C   UNL     1     141.734 167.764 188.725  0.00  0.00    -0.053 C 
ATOM     61  H   UNL     1     140.803 167.342 189.118  0.00  0.00    +0.024 HD
ATOM     62  H   UNL     1     141.494 168.671 188.160  0.00  0.00    +0.024 HD
ATOM     63  H   UNL     1     142.341 168.057 189.591  0.00  0.00    +0.024 HD
ENDBRANCH  25  60
BRANCH  31  64
ATOM     64  O   UNL     1     149.275 168.068 189.427  0.00  0.00    -0.391 OA
ATOM     65  H   UNL     1     149.799 168.816 189.070  0.00  0.00    +0.210 HD
ENDBRANCH  31  64
BRANCH  24  66
ATOM     66  O   UNL     1     141.658 164.575 188.415  0.00  0.00    -0.373 OA
BRANCH  66  67
ATOM     67  C   UNL     1     141.195 164.446 187.075  0.00  0.00    +0.037 C 
ATOM     68  H   UNL     1     140.421 163.676 186.999  0.00  0.00    +0.052 HD
ATOM     69  H   UNL     1     140.807 165.403 186.711  0.00  0.00    +0.052 HD
ATOM     70  H   UNL     1     142.041 164.153 186.447  0.00  0.00    +0.052 HD
ENDBRANCH  66  67
ENDBRANCH  24  66
BRANCH   5  71
ATOM     71  O   UNL     1     155.167 165.695 189.275  0.00  0.00    -0.379 OA
BRANCH  71  72
ATOM     72  C   UNL     1     156.115 164.819 189.873  0.00  0.00    +0.037 C 
ATOM     73  H   UNL     1     155.626 163.974 190.366  0.00  0.00    +0.052 HD
ATOM     74  H   UNL     1     156.672 165.386 190.626  0.00  0.00    +0.052 HD
ATOM     75  H   UNL     1     156.822 164.456 189.121  0.00  0.00    +0.052 HD
ENDBRANCH  71  72
ENDBRANCH   5  71
ENDBRANCH   1  36
BRANCH   1  76
ATOM     76  C   UNL     1     152.373 163.150 186.102  0.00  0.00    +0.064 C 
ATOM     77  H   UNL     1     152.759 162.932 187.103  0.00  0.00    +0.060 HD
BRANCH  76  78
ATOM     78  C   UNL     1     151.011 162.426 185.914  0.00  0.00    -0.017 C 
ATOM     79  H   UNL     1     150.364 163.094 185.343  0.00  0.00    +0.032 HD
BRANCH  78  80
ATOM     80  C   UNL     1     151.236 161.166 185.044  0.00  0.00    -0.060 C 
ATOM     81  H   UNL     1     151.435 160.289 185.672  0.00  0.00    +0.023 HD
ATOM     82  H   UNL     1     150.353 160.930 184.444  0.00  0.00    +0.023 HD
ATOM     83  H   UNL     1     152.088 161.302 184.372  0.00  0.00    +0.023 HD
ENDBRANCH  78  80
BRANCH  78  84
ATOM     84  C   UNL     1     150.287 161.962 187.189  0.00  0.00    -0.045 C 
ATOM     85  H   UNL     1     150.665 160.963 187.457  0.00  0.00    +0.027 HD
ATOM     86  H   UNL     1     150.588 162.610 188.029  0.00  0.00    +0.027 HD
BRANCH  84  87
ATOM     87  C   UNL     1     148.755 161.829 187.207  0.00  0.00    -0.015 C 
ATOM     88  H   UNL     1     148.429 162.639 187.869  0.00  0.00    +0.030 HD
ATOM     89  H   UNL     1     148.344 162.084 186.223  0.00  0.00    +0.030 HD
BRANCH  87  90
ATOM     90  C   UNL     1     148.096 160.517 187.698  0.00  0.00    +0.109 C 
ATOM     91  H   UNL     1     148.249 160.467 188.783  0.00  0.00    +0.074 HD
BRANCH  90  92
ATOM     92  C   UNL     1     148.741 159.262 187.006  0.00  0.00    +0.031 C 
ATOM     93  H   UNL     1     149.407 159.632 186.216  0.00  0.00    +0.037 HD
BRANCH  92  94
ATOM     94  C   UNL     1     147.700 158.420 186.244  0.00  0.00    -0.056 C 
ATOM     95  H   UNL     1     148.141 157.935 185.372  0.00  0.00    +0.023 HD
ATOM     96  H   UNL     1     146.850 159.028 185.923  0.00  0.00    +0.023 HD
ATOM     97  H   UNL     1     147.315 157.611 186.877  0.00  0.00    +0.023 HD
ENDBRANCH  92  94
BRANCH  92  98
ATOM     98  C   UNL     1     149.534 158.292 187.941  0.00  0.00    +0.115 C 
ATOM     99  H   UNL     1     148.997 157.332 187.978  0.00  0.00    +0.074 HD
BRANCH  98 100
ATOM    100  C   UNL     1     150.971 157.916 187.469  0.00  0.00    +0.013 C 
ATOM    101  H   UNL     1     151.009 157.891 186.378  0.00  0.00    +0.038 HD
BRANCH 100 102
ATOM    102  C   UNL     1     151.411 156.545 188.001  0.00  0.00    -0.056 C 
ATOM    103  H   UNL     1     150.574 155.832 188.022  0.00  0.00    +0.024 HD
ATOM    104  H   UNL     1     152.204 156.108 187.376  0.00  0.00    +0.024 HD
ATOM    105  H   UNL     1     151.792 156.618 189.024  0.00  0.00    +0.024 HD
ENDBRANCH 100 102
BRANCH 100 106
ATOM    106  C   UNL     1     151.985 158.946 187.941  0.00  0.00    -0.064 C 
ATOM    107  C   UNL     1     153.268 158.653 188.199  0.00  0.00    -0.005 C 
ATOM    108  H   UNL     1     151.605 159.956 188.079  0.00  0.00    +0.059 HD
ATOM    109  H   UNL     1     153.594 157.621 188.079  0.00  0.00    +0.078 HD
BRANCH 107 110
ATOM    110  N   UNL     1     154.258 159.518 188.638  0.00  0.00    -0.284 N 
ATOM    111  C   UNL     1     155.028 159.346 189.789  0.00  0.00    +0.206 C 
ATOM    112  O   UNL     1     154.996 158.435 190.610  0.00  0.00    -0.279 OA
ATOM    113  H   UNL     1     155.742 160.174 189.934  0.00  0.00    +0.126 HD
BRANCH 110 114
ATOM    114  C   UNL     1     154.503 160.704 187.822  0.00  0.00    +0.007 C 
ATOM    115  H   UNL     1     155.209 161.358 188.347  0.00  0.00    +0.043 HD
ATOM    116  H   UNL     1     153.583 161.269 187.637  0.00  0.00    +0.043 HD
ATOM    117  H   UNL     1     154.927 160.400 186.861  0.00  0.00    +0.043 HD
ENDBRANCH 110 114
ENDBRANCH 107 110
ENDBRANCH 100 106
ENDBRANCH  98 100
BRANCH  98 118
ATOM    118  O   UNL     1     149.620 158.852 189.273  0.00  0.00    -0.461 OA
BRANCH 118 119
ATOM    119  C   UNL     1     148.704 158.400 190.178  0.00  0.00    +0.304 C 
ATOM    120  O   UNL     1     148.280 159.022 191.141  0.00  0.00    -0.251 OA
BRANCH 119 121
ATOM    121  C   UNL     1     148.299 156.994 189.854  0.00  0.00    +0.033 C 
ATOM    122  H   UNL     1     148.024 156.931 188.800  0.00  0.00    +0.034 HD
ATOM    123  H   UNL     1     147.465 156.691 190.493  0.00  0.00    +0.034 HD
ATOM    124  H   UNL     1     149.135 156.320 190.055  0.00  0.00    +0.034 HD
ENDBRANCH 119 121
ENDBRANCH 118 119
ENDBRANCH  98 118
ENDBRANCH  92  98
ENDBRANCH  90  92
BRANCH  90 125
ATOM    125  O   UNL     1     146.672 160.571 187.423  0.00  0.00    -0.459 OA
BRANCH 125 126
ATOM    126  C   UNL     1     145.848 160.746 188.510  0.00  0.00    +0.339 C 
ATOM    127  O   UNL     1     145.733 159.934 189.419  0.00  0.00    -0.248 OA
BRANCH 126 128
ATOM    128  C   UNL     1     145.021 162.041 188.428  0.00  0.00    +0.178 C 
ATOM    129  H   UNL     1     145.712 162.867 188.662  0.00  0.00    +0.074 HD
BRANCH 128 130
ATOM    130  C   UNL     1     144.513 162.226 186.997  0.00  0.00    +0.084 C 
ATOM    131  H   UNL     1     144.726 161.334 186.405  0.00  0.00    +0.059 HD
ATOM    132  H   UNL     1     143.422 162.339 187.009  0.00  0.00    +0.059 HD
BRANCH 130 133
ATOM    133  O   UNL     1     145.095 163.374 186.385  0.00  0.00    -0.380 OA
BRANCH 133 134
ATOM    134  C   UNL     1     145.888 164.113 187.304  0.00  0.00    +0.037 C 
ATOM    135  H   UNL     1     145.854 165.179 187.056  0.00  0.00    +0.052 HD
ATOM    136  H   UNL     1     145.475 163.974 188.306  0.00  0.00    +0.052 HD
ATOM    137  H   UNL     1     146.925 163.762 187.298  0.00  0.00    +0.052 HD
ENDBRANCH 133 134
ENDBRANCH 130 133
ENDBRANCH 128 130
BRANCH 128 138
ATOM    138  O   UNL     1     143.890 162.109 189.302  0.00  0.00    -0.366 OA
BRANCH 138 139
ATOM    139  C   UNL     1     142.766 161.412 188.784  0.00  0.00    +0.038 C 
ATOM    140  H   UNL     1     143.045 160.981 187.818  0.00  0.00    +0.052 HD
ATOM    141  H   UNL     1     141.930 162.101 188.623  0.00  0.00    +0.052 HD
ATOM    142  H   UNL     1     142.462 160.602 189.452  0.00  0.00    +0.052 HD
ENDBRANCH 138 139
ENDBRANCH 128 138
ENDBRANCH 126 128
ENDBRANCH 125 126
ENDBRANCH  90 125
ENDBRANCH  87  90
ENDBRANCH  84  87
ENDBRANCH  78  84
ENDBRANCH  76  78
BRANCH  76 143
ATOM    143  O   UNL     1     153.244 162.631 185.079  0.00  0.00    -0.379 OA
BRANCH 143 144
ATOM    144  C   UNL     1     154.365 163.461 184.801  0.00  0.00    +0.037 C 
ATOM    145  H   UNL     1     154.812 163.126 183.858  0.00  0.00    +0.052 HD
ATOM    146  H   UNL     1     155.126 163.401 185.586  0.00  0.00    +0.052 HD
ATOM    147  H   UNL     1     154.047 164.496 184.666  0.00  0.00    +0.052 HD
ENDBRANCH 143 144
ENDBRANCH  76 143
ENDBRANCH   1  76
TORSDOF 35
ENDMDL
MODEL 7
REMARK VINA RESULT:      -5.4      3.288      7.070
REMARK  Name = Mycalolide B_conf3
REMARK  35 active torsions:
REMARK  status: ('A' for Active; 'I' for Inactive)
REMARK    1  A    between atoms: C_1  and  C_2
REMARK    2  A    between atoms: C_3  and  O_72
REMARK    3  A    between atoms: C_22  and  O_70
REMARK    4  A    between atoms: C_23  and  C_69
REMARK    5  A    between atoms: C_29  and  O_68
REMARK    6  A    between atoms: C_34  and  C_35
REMARK    7  A    between atoms: C_35  and  C_36
REMARK    8  A    between atoms: C_36  and  C_37
REMARK    9  A    between atoms: C_36  and  O_66
REMARK   10  A    between atoms: C_37  and  C_38
REMARK   11  A    between atoms: C_37  and  C_39
REMARK   12  A    between atoms: C_39  and  C_40
REMARK   13  A    between atoms: C_40  and  C_41
REMARK   14  A    between atoms: C_41  and  C_42
REMARK   15  A    between atoms: C_41  and  O_57
REMARK   16  A    between atoms: C_42  and  C_43
REMARK   17  A    between atoms: C_42  and  C_44
REMARK   18  A    between atoms: C_44  and  C_45
REMARK   19  A    between atoms: C_44  and  O_53
REMARK   20  A    between atoms: C_45  and  C_46
REMARK   21  A    between atoms: C_45  and  C_47
REMARK   22  A    between atoms: C_48  and  N_49
REMARK   23  A    between atoms: N_49  and  C_50
REMARK   24  A    between atoms: O_53  and  C_54
REMARK   25  A    between atoms: C_54  and  C_56
REMARK   26  A    between atoms: O_57  and  C_58
REMARK   27  A    between atoms: C_58  and  C_60
REMARK   28  A    between atoms: C_60  and  C_61
REMARK   29  A    between atoms: C_60  and  O_64
REMARK   30  A    between atoms: C_61  and  O_62
REMARK   31  A    between atoms: O_62  and  C_63
REMARK   32  A    between atoms: O_64  and  C_65
REMARK   33  A    between atoms: O_66  and  C_67
REMARK   34  A    between atoms: O_70  and  C_71
REMARK   35  A    between atoms: O_72  and  C_73
REMARK                            x       y       z     vdW  Elec       q    Type
REMARK                         _______ _______ _______ _____ _____    ______ ____
ROOT
ATOM      1  C   UNL     1     149.448 163.744 186.167  0.00  0.00    +0.011 C 
ATOM      2  H   UNL     1     148.700 162.944 186.159  0.00  0.00    +0.033 HD
ATOM      3  H   UNL     1     149.194 164.452 185.370  0.00  0.00    +0.033 HD
ENDROOT
BRANCH   1  36
ATOM      4  C   UNL     1     150.874 161.591 185.902  0.00  0.00    +0.020 C 
ATOM      5  C   UNL     1     150.676 160.965 187.313  0.00  0.00    +0.068 C 
ATOM      6  C   UNL     1     151.612 161.518 188.418  0.00  0.00    -0.008 C 
ATOM      7  C   UNL     1     153.044 161.765 188.029  0.00  0.00    -0.077 C 
ATOM      8  C   UNL     1     153.916 160.836 187.607  0.00  0.00    -0.003 C 
ATOM      9  C   UNL     1     155.241 161.222 187.256  0.00  0.00    +0.220 A 
ATOM     10  N   UNL     1     155.622 162.434 186.864  0.00  0.00    -0.205 NA
ATOM     11  C   UNL     1     156.990 162.376 186.782  0.00  0.00    +0.164 A 
ATOM     12  C   UNL     1     157.418 161.111 187.071  0.00  0.00    +0.125 A 
ATOM     13  O   UNL     1     156.320 160.349 187.333  0.00  0.00    -0.443 OA
ATOM     14  C   UNL     1     157.890 163.598 186.450  0.00  0.00    +0.250 A 
ATOM     15  N   UNL     1     157.399 164.770 186.078  0.00  0.00    -0.203 NA
ATOM     16  C   UNL     1     158.500 165.585 185.990  0.00  0.00    +0.164 A 
ATOM     17  C   UNL     1     159.632 164.867 186.265  0.00  0.00    +0.125 A 
ATOM     18  O   UNL     1     159.263 163.583 186.539  0.00  0.00    -0.442 OA
ATOM     19  C   UNL     1     158.460 167.095 185.613  0.00  0.00    +0.249 A 
ATOM     20  N   UNL     1     157.359 167.718 185.228  0.00  0.00    -0.210 NA
ATOM     21  C   UNL     1     157.768 168.996 184.912  0.00  0.00    +0.109 A 
ATOM     22  C   UNL     1     159.104 169.118 185.201  0.00  0.00    +0.118 A 
ATOM     23  O   UNL     1     159.573 167.904 185.603  0.00  0.00    -0.442 OA
ATOM     24  C   UNL     1     156.813 170.008 184.347  0.00  0.00    +0.113 C 
ATOM     25  C   UNL     1     156.740 170.014 182.806  0.00  0.00    +0.051 C 
ATOM     26  C   UNL     1     155.704 169.028 182.295  0.00  0.00    +0.161 C 
ATOM     27  O   UNL     1     154.640 169.434 181.823  0.00  0.00    -0.292 OA
ATOM     28  C   UNL     1     155.972 167.565 182.402  0.00  0.00    -0.023 C 
ATOM     29  C   UNL     1     155.009 166.672 182.122  0.00  0.00    -0.078 C 
ATOM     30  C   UNL     1     155.161 165.193 182.343  0.00  0.00    -0.008 C 
ATOM     31  C   UNL     1     154.288 164.682 183.499  0.00  0.00    +0.069 C 
ATOM     32  C   UNL     1     152.799 164.689 183.158  0.00  0.00    +0.071 C 
ATOM     33  C   UNL     1     152.029 164.655 184.446  0.00  0.00    +0.310 C 
ATOM     34  O   UNL     1     152.108 165.537 185.290  0.00  0.00    -0.251 OA
ATOM     35  O   UNL     1     151.288 163.523 184.551  0.00  0.00    -0.461 OA
ATOM     36  C   UNL     1     150.840 163.144 185.879  0.00  0.00    +0.110 C 
ATOM     37  H   UNL     1     151.860 161.272 185.527  0.00  0.00    +0.036 HD
ATOM     38  H   UNL     1     149.639 161.138 187.627  0.00  0.00    +0.060 HD
ATOM     39  H   UNL     1     151.200 162.469 188.768  0.00  0.00    +0.033 HD
ATOM     40  H   UNL     1     151.609 160.856 189.292  0.00  0.00    +0.033 HD
ATOM     41  H   UNL     1     153.371 162.806 188.096  0.00  0.00    +0.057 HD
ATOM     42  H   UNL     1     153.649 159.789 187.546  0.00  0.00    +0.067 HD
ATOM     43  H   UNL     1     158.374 160.613 187.122  0.00  0.00    +0.105 HD
ATOM     44  H   UNL     1     160.691 165.091 186.314  0.00  0.00    +0.105 HD
ATOM     45  H   UNL     1     159.824 169.922 185.123  0.00  0.00    +0.105 HD
ATOM     46  H   UNL     1     155.824 169.764 184.758  0.00  0.00    +0.067 HD
ATOM     47  H   UNL     1     156.355 171.000 182.503  0.00  0.00    +0.041 HD
ATOM     48  H   UNL     1     156.936 167.248 182.778  0.00  0.00    +0.065 HD
ATOM     49  H   UNL     1     154.049 167.022 181.749  0.00  0.00    +0.057 HD
ATOM     50  H   UNL     1     154.917 164.657 181.418  0.00  0.00    +0.033 HD
ATOM     51  H   UNL     1     156.210 164.945 182.556  0.00  0.00    +0.033 HD
ATOM     52  H   UNL     1     154.493 165.280 184.397  0.00  0.00    +0.060 HD
ATOM     53  H   UNL     1     152.479 165.600 182.638  0.00  0.00    +0.040 HD
ATOM     54  H   UNL     1     152.524 163.832 182.530  0.00  0.00    +0.040 HD
ATOM     55  H   UNL     1     151.584 163.500 186.593  0.00  0.00    +0.074 HD
BRANCH   4  56
ATOM     56  C   UNL     1     149.876 160.993 184.894  0.00  0.00    -0.057 C 
ATOM     57  H   UNL     1     150.379 160.701 183.967  0.00  0.00    +0.023 HD
ATOM     58  H   UNL     1     149.091 161.708 184.641  0.00  0.00    +0.023 HD
ATOM     59  H   UNL     1     149.396 160.094 185.294  0.00  0.00    +0.023 HD
ENDBRANCH   4  56
BRANCH  25  60
ATOM     60  C   UNL     1     158.077 169.883 182.076  0.00  0.00    -0.053 C 
ATOM     61  H   UNL     1     158.761 170.709 182.293  0.00  0.00    +0.024 HD
ATOM     62  H   UNL     1     157.923 169.833 180.992  0.00  0.00    +0.024 HD
ATOM     63  H   UNL     1     158.583 168.960 182.387  0.00  0.00    +0.024 HD
ENDBRANCH  25  60
BRANCH  31  64
ATOM     64  O   UNL     1     154.667 163.333 183.790  0.00  0.00    -0.391 OA
ATOM     65  H   UNL     1     155.086 162.977 182.978  0.00  0.00    +0.210 HD
ENDBRANCH  31  64
BRANCH  24  66
ATOM     66  O   UNL     1     157.188 171.326 184.796  0.00  0.00    -0.373 OA
BRANCH  66  67
ATOM     67  C   UNL     1     156.416 172.345 184.170  0.00  0.00    +0.037 C 
ATOM     68  H   UNL     1     155.811 171.934 183.355  0.00  0.00    +0.052 HD
ATOM     69  H   UNL     1     155.769 172.839 184.903  0.00  0.00    +0.052 HD
ATOM     70  H   UNL     1     157.101 173.088 183.755  0.00  0.00    +0.052 HD
ENDBRANCH  66  67
ENDBRANCH  24  66
BRANCH   5  71
ATOM     71  O   UNL     1     150.878 159.540 187.197  0.00  0.00    -0.379 OA
BRANCH  71  72
ATOM     72  C   UNL     1     150.605 158.846 188.409  0.00  0.00    +0.037 C 
ATOM     73  H   UNL     1     151.402 158.991 189.143  0.00  0.00    +0.052 HD
ATOM     74  H   UNL     1     150.532 157.778 188.178  0.00  0.00    +0.052 HD
ATOM     75  H   UNL     1     149.647 159.175 188.826  0.00  0.00    +0.052 HD
ENDBRANCH  71  72
ENDBRANCH   5  71
ENDBRANCH   1  36
BRANCH   1  76
ATOM     76  C   UNL     1     149.340 164.441 187.533  0.00  0.00    +0.064 C 
ATOM     77  H   UNL     1     150.066 164.011 188.229  0.00  0.00    +0.060 HD
BRANCH  76  78
ATOM     78  C   UNL     1     149.559 165.978 187.454  0.00  0.00    -0.017 C 
ATOM     79  H   UNL     1     149.928 166.203 186.453  0.00  0.00    +0.032 HD
BRANCH  78  80
ATOM     80  C   UNL     1     148.188 166.682 187.598  0.00  0.00    -0.060 C 
ATOM     81  H   UNL     1     147.374 165.948 187.630  0.00  0.00    +0.023 HD
ATOM     82  H   UNL     1     148.129 167.259 188.524  0.00  0.00    +0.023 HD
ATOM     83  H   UNL     1     148.005 167.355 186.754  0.00  0.00    +0.023 HD
ENDBRANCH  78  80
BRANCH  78  84
ATOM     84  C   UNL     1     150.490 166.602 188.507  0.00  0.00    -0.045 C 
ATOM     85  H   UNL     1     151.200 167.267 187.989  0.00  0.00    +0.027 HD
ATOM     86  H   UNL     1     149.902 167.272 189.155  0.00  0.00    +0.027 HD
BRANCH  84  87
ATOM     87  C   UNL     1     151.362 165.706 189.402  0.00  0.00    -0.015 C 
ATOM     88  H   UNL     1     150.886 164.721 189.329  0.00  0.00    +0.030 HD
ATOM     89  H   UNL     1     152.353 165.576 188.953  0.00  0.00    +0.030 HD
BRANCH  87  90
ATOM     90  C   UNL     1     151.534 166.042 190.903  0.00  0.00    +0.109 C 
ATOM     91  H   UNL     1     151.130 165.195 191.471  0.00  0.00    +0.074 HD
BRANCH  90  92
ATOM     92  C   UNL     1     150.767 167.360 191.283  0.00  0.00    +0.031 C 
ATOM     93  H   UNL     1     150.107 167.606 190.443  0.00  0.00    +0.037 HD
BRANCH  92  94
ATOM     94  C   UNL     1     151.710 168.574 191.376  0.00  0.00    -0.056 C 
ATOM     95  H   UNL     1     152.666 168.303 191.826  0.00  0.00    +0.023 HD
ATOM     96  H   UNL     1     151.261 169.387 191.953  0.00  0.00    +0.023 HD
ATOM     97  H   UNL     1     151.945 168.962 190.377  0.00  0.00    +0.023 HD
ENDBRANCH  92  94
BRANCH  92  98
ATOM     98  C   UNL     1     149.932 167.313 192.604  0.00  0.00    +0.115 C 
ATOM     99  H   UNL     1     150.363 168.037 193.312  0.00  0.00    +0.074 HD
BRANCH  98 100
ATOM    100  C   UNL     1     148.437 167.736 192.477  0.00  0.00    +0.013 C 
ATOM    101  H   UNL     1     147.874 167.377 193.341  0.00  0.00    +0.038 HD
BRANCH 100 102
ATOM    102  C   UNL     1     147.787 167.172 191.206  0.00  0.00    -0.056 C 
ATOM    103  H   UNL     1     146.752 166.851 191.391  0.00  0.00    +0.024 HD
ATOM    104  H   UNL     1     147.763 167.922 190.401  0.00  0.00    +0.024 HD
ATOM    105  H   UNL     1     148.330 166.298 190.834  0.00  0.00    +0.024 HD
ENDBRANCH 100 102
BRANCH 100 106
ATOM    106  C   UNL     1     148.301 169.250 192.437  0.00  0.00    -0.064 C 
ATOM    107  C   UNL     1     148.016 169.936 191.320  0.00  0.00    -0.005 C 
ATOM    108  H   UNL     1     148.468 169.765 193.381  0.00  0.00    +0.059 HD
ATOM    109  H   UNL     1     147.892 169.379 190.393  0.00  0.00    +0.078 HD
BRANCH 107 110
ATOM    110  N   UNL     1     147.881 171.308 191.186  0.00  0.00    -0.284 N 
ATOM    111  C   UNL     1     146.669 171.996 191.102  0.00  0.00    +0.206 C 
ATOM    112  O   UNL     1     145.527 171.552 191.134  0.00  0.00    -0.279 OA
ATOM    113  H   UNL     1     146.820 173.083 190.986  0.00  0.00    +0.126 HD
BRANCH 110 114
ATOM    114  C   UNL     1     149.115 172.087 191.124  0.00  0.00    +0.007 C 
ATOM    115  H   UNL     1     149.080 172.740 190.244  0.00  0.00    +0.043 HD
ATOM    116  H   UNL     1     149.998 171.445 191.041  0.00  0.00    +0.043 HD
ATOM    117  H   UNL     1     149.206 172.693 192.029  0.00  0.00    +0.043 HD
ENDBRANCH 110 114
ENDBRANCH 107 110
ENDBRANCH 100 106
ENDBRANCH  98 100
BRANCH  98 118
ATOM    118  O   UNL     1     149.986 165.985 193.175  0.00  0.00    -0.461 OA
BRANCH 118 119
ATOM    119  C   UNL     1     150.676 165.858 194.345  0.00  0.00    +0.304 C 
ATOM    120  O   UNL     1     151.891 165.776 194.457  0.00  0.00    -0.251 OA
BRANCH 119 121
ATOM    121  C   UNL     1     149.730 165.795 195.506  0.00  0.00    +0.033 C 
ATOM    122  H   UNL     1     150.273 165.477 196.398  0.00  0.00    +0.034 HD
ATOM    123  H   UNL     1     148.911 165.106 195.282  0.00  0.00    +0.034 HD
ATOM    124  H   UNL     1     149.297 166.784 195.675  0.00  0.00    +0.034 HD
ENDBRANCH 119 121
ENDBRANCH 118 119
ENDBRANCH  98 118
ENDBRANCH  92  98
ENDBRANCH  90  92
BRANCH  90 125
ATOM    125  O   UNL     1     152.949 166.176 191.199  0.00  0.00    -0.459 OA
BRANCH 125 126
ATOM    126  C   UNL     1     153.800 165.367 190.483  0.00  0.00    +0.339 C 
ATOM    127  O   UNL     1     153.819 164.146 190.571  0.00  0.00    -0.248 OA
BRANCH 126 128
ATOM    128  C   UNL     1     154.786 166.163 189.611  0.00  0.00    +0.178 C 
ATOM    129  H   UNL     1     154.481 167.220 189.682  0.00  0.00    +0.074 HD
BRANCH 128 130
ATOM    130  C   UNL     1     156.196 166.030 190.192  0.00  0.00    +0.084 C 
ATOM    131  H   UNL     1     156.654 167.016 190.295  0.00  0.00    +0.059 HD
ATOM    132  H   UNL     1     156.134 165.607 191.202  0.00  0.00    +0.059 HD
BRANCH 130 133
ATOM    133  O   UNL     1     157.013 165.189 189.382  0.00  0.00    -0.380 OA
BRANCH 133 134
ATOM    134  C   UNL     1     157.403 164.012 190.075  0.00  0.00    +0.037 C 
ATOM    135  H   UNL     1     156.729 163.187 189.822  0.00  0.00    +0.052 HD
ATOM    136  H   UNL     1     158.415 163.744 189.760  0.00  0.00    +0.052 HD
ATOM    137  H   UNL     1     157.402 164.174 191.158  0.00  0.00    +0.052 HD
ENDBRANCH 133 134
ENDBRANCH 130 133
ENDBRANCH 128 130
BRANCH 128 138
ATOM    138  O   UNL     1     154.846 165.779 188.235  0.00  0.00    -0.366 OA
BRANCH 138 139
ATOM    139  C   UNL     1     154.485 166.840 187.362  0.00  0.00    +0.038 C 
ATOM    140  H   UNL     1     153.640 166.507 186.751  0.00  0.00    +0.052 HD
ATOM    141  H   UNL     1     155.316 167.085 186.693  0.00  0.00    +0.052 HD
ATOM    142  H   UNL     1     154.180 167.726 187.924  0.00  0.00    +0.052 HD
ENDBRANCH 138 139
ENDBRANCH 128 138
ENDBRANCH 126 128
ENDBRANCH 125 126
ENDBRANCH  90 125
ENDBRANCH  87  90
ENDBRANCH  84  87
ENDBRANCH  78  84
ENDBRANCH  76  78
BRANCH  76 143
ATOM    143  O   UNL     1     147.990 164.255 188.000  0.00  0.00    -0.379 OA
BRANCH 143 144
ATOM    144  C   UNL     1     147.419 163.006 187.632  0.00  0.00    +0.037 C 
ATOM    145  H   UNL     1     148.232 162.328 187.349  0.00  0.00    +0.052 HD
ATOM    146  H   UNL     1     146.734 163.102 186.781  0.00  0.00    +0.052 HD
ATOM    147  H   UNL     1     146.898 162.561 188.482  0.00  0.00    +0.052 HD
ENDBRANCH 143 144
ENDBRANCH  76 143
ENDBRANCH   1  76
TORSDOF 35
ENDMDL
MODEL 8
REMARK VINA RESULT:      -5.4      4.485      8.613
REMARK  Name = Mycalolide B_conf3
REMARK  35 active torsions:
REMARK  status: ('A' for Active; 'I' for Inactive)
REMARK    1  A    between atoms: C_1  and  C_2
REMARK    2  A    between atoms: C_3  and  O_72
REMARK    3  A    between atoms: C_22  and  O_70
REMARK    4  A    between atoms: C_23  and  C_69
REMARK    5  A    between atoms: C_29  and  O_68
REMARK    6  A    between atoms: C_34  and  C_35
REMARK    7  A    between atoms: C_35  and  C_36
REMARK    8  A    between atoms: C_36  and  C_37
REMARK    9  A    between atoms: C_36  and  O_66
REMARK   10  A    between atoms: C_37  and  C_38
REMARK   11  A    between atoms: C_37  and  C_39
REMARK   12  A    between atoms: C_39  and  C_40
REMARK   13  A    between atoms: C_40  and  C_41
REMARK   14  A    between atoms: C_41  and  C_42
REMARK   15  A    between atoms: C_41  and  O_57
REMARK   16  A    between atoms: C_42  and  C_43
REMARK   17  A    between atoms: C_42  and  C_44
REMARK   18  A    between atoms: C_44  and  C_45
REMARK   19  A    between atoms: C_44  and  O_53
REMARK   20  A    between atoms: C_45  and  C_46
REMARK   21  A    between atoms: C_45  and  C_47
REMARK   22  A    between atoms: C_48  and  N_49
REMARK   23  A    between atoms: N_49  and  C_50
REMARK   24  A    between atoms: O_53  and  C_54
REMARK   25  A    between atoms: C_54  and  C_56
REMARK   26  A    between atoms: O_57  and  C_58
REMARK   27  A    between atoms: C_58  and  C_60
REMARK   28  A    between atoms: C_60  and  C_61
REMARK   29  A    between atoms: C_60  and  O_64
REMARK   30  A    between atoms: C_61  and  O_62
REMARK   31  A    between atoms: O_62  and  C_63
REMARK   32  A    between atoms: O_64  and  C_65
REMARK   33  A    between atoms: O_66  and  C_67
REMARK   34  A    between atoms: O_70  and  C_71
REMARK   35  A    between atoms: O_72  and  C_73
REMARK                            x       y       z     vdW  Elec       q    Type
REMARK                         _______ _______ _______ _____ _____    ______ ____
ROOT
ATOM      1  C   UNL     1     145.631 171.183 183.807  0.00  0.00    +0.011 C 
ATOM      2  H   UNL     1     145.298 171.131 182.764  0.00  0.00    +0.033 HD
ATOM      3  H   UNL     1     146.726 171.178 183.813  0.00  0.00    +0.033 HD
ENDROOT
BRANCH   1  36
ATOM      4  C   UNL     1     143.744 169.420 184.071  0.00  0.00    +0.020 C 
ATOM      5  C   UNL     1     142.545 170.359 184.391  0.00  0.00    +0.068 C 
ATOM      6  C   UNL     1     142.424 170.795 185.875  0.00  0.00    -0.008 C 
ATOM      7  C   UNL     1     142.699 169.740 186.912  0.00  0.00    -0.077 C 
ATOM      8  C   UNL     1     142.008 168.602 187.080  0.00  0.00    -0.003 C 
ATOM      9  C   UNL     1     142.396 167.687 188.098  0.00  0.00    +0.220 A 
ATOM     10  N   UNL     1     143.611 167.579 188.629  0.00  0.00    -0.205 NA
ATOM     11  C   UNL     1     143.479 166.686 189.661  0.00  0.00    +0.164 A 
ATOM     12  C   UNL     1     142.196 166.218 189.708  0.00  0.00    +0.125 A 
ATOM     13  O   UNL     1     141.500 166.808 188.696  0.00  0.00    -0.443 OA
ATOM     14  C   UNL     1     144.628 166.317 190.639  0.00  0.00    +0.250 A 
ATOM     15  N   UNL     1     145.875 166.730 190.469  0.00  0.00    -0.203 NA
ATOM     16  C   UNL     1     146.534 166.283 191.587  0.00  0.00    +0.164 A 
ATOM     17  C   UNL     1     145.675 165.569 192.378  0.00  0.00    +0.125 A 
ATOM     18  O   UNL     1     144.453 165.560 191.774  0.00  0.00    -0.442 OA
ATOM     19  C   UNL     1     148.040 166.537 191.891  0.00  0.00    +0.249 A 
ATOM     20  N   UNL     1     148.864 167.120 191.038  0.00  0.00    -0.210 NA
ATOM     21  C   UNL     1     150.099 167.073 191.651  0.00  0.00    +0.109 A 
ATOM     22  C   UNL     1     149.951 166.530 192.902  0.00  0.00    +0.118 A 
ATOM     23  O   UNL     1     148.655 166.138 193.056  0.00  0.00    -0.442 OA
ATOM     24  C   UNL     1     151.337 167.568 190.960  0.00  0.00    +0.113 C 
ATOM     25  C   UNL     1     152.078 166.488 190.145  0.00  0.00    +0.051 C 
ATOM     26  C   UNL     1     151.546 166.401 188.725  0.00  0.00    +0.161 C 
ATOM     27  O   UNL     1     152.219 166.826 187.784  0.00  0.00    -0.292 OA
ATOM     28  C   UNL     1     150.189 165.829 188.486  0.00  0.00    -0.023 C 
ATOM     29  C   UNL     1     149.624 165.899 187.270  0.00  0.00    -0.078 C 
ATOM     30  C   UNL     1     148.210 165.474 186.989  0.00  0.00    -0.008 C 
ATOM     31  C   UNL     1     147.291 166.668 186.684  0.00  0.00    +0.069 C 
ATOM     32  C   UNL     1     147.589 167.308 185.329  0.00  0.00    +0.071 C 
ATOM     33  C   UNL     1     147.017 168.696 185.336  0.00  0.00    +0.310 C 
ATOM     34  O   UNL     1     147.384 169.560 186.120  0.00  0.00    -0.251 OA
ATOM     35  O   UNL     1     146.041 168.833 184.405  0.00  0.00    -0.461 OA
ATOM     36  C   UNL     1     145.119 169.943 184.570  0.00  0.00    +0.110 C 
ATOM     37  H   UNL     1     143.555 168.453 184.564  0.00  0.00    +0.036 HD
ATOM     38  H   UNL     1     142.638 171.264 183.778  0.00  0.00    +0.060 HD
ATOM     39  H   UNL     1     143.129 171.614 186.046  0.00  0.00    +0.033 HD
ATOM     40  H   UNL     1     141.431 171.213 186.073  0.00  0.00    +0.033 HD
ATOM     41  H   UNL     1     143.551 169.944 187.566  0.00  0.00    +0.057 HD
ATOM     42  H   UNL     1     141.144 168.366 186.474  0.00  0.00    +0.067 HD
ATOM     43  H   UNL     1     141.651 165.520 190.324  0.00  0.00    +0.105 HD
ATOM     44  H   UNL     1     145.755 165.050 193.326  0.00  0.00    +0.105 HD
ATOM     45  H   UNL     1     150.630 166.314 193.717  0.00  0.00    +0.105 HD
ATOM     46  H   UNL     1     151.015 168.375 190.288  0.00  0.00    +0.067 HD
ATOM     47  H   UNL     1     153.118 166.825 190.030  0.00  0.00    +0.041 HD
ATOM     48  H   UNL     1     149.649 165.424 189.332  0.00  0.00    +0.065 HD
ATOM     49  H   UNL     1     150.192 166.316 186.440  0.00  0.00    +0.057 HD
ATOM     50  H   UNL     1     148.199 164.765 186.153  0.00  0.00    +0.033 HD
ATOM     51  H   UNL     1     147.799 164.923 187.846  0.00  0.00    +0.033 HD
ATOM     52  H   UNL     1     147.372 167.402 187.497  0.00  0.00    +0.060 HD
ATOM     53  H   UNL     1     148.662 167.423 185.132  0.00  0.00    +0.040 HD
ATOM     54  H   UNL     1     147.159 166.725 184.504  0.00  0.00    +0.040 HD
ATOM     55  H   UNL     1     145.028 170.142 185.639  0.00  0.00    +0.074 HD
BRANCH   4  56
ATOM     56  C   UNL     1     143.784 169.078 182.570  0.00  0.00    -0.057 C 
ATOM     57  H   UNL     1     144.775 169.273 182.149  0.00  0.00    +0.023 HD
ATOM     58  H   UNL     1     143.057 169.667 182.009  0.00  0.00    +0.023 HD
ATOM     59  H   UNL     1     143.567 168.019 182.397  0.00  0.00    +0.023 HD
ENDBRANCH   4  56
BRANCH  25  60
ATOM     60  C   UNL     1     152.191 165.115 190.808  0.00  0.00    -0.053 C 
ATOM     61  H   UNL     1     152.171 165.169 191.901  0.00  0.00    +0.024 HD
ATOM     62  H   UNL     1     153.114 164.611 190.501  0.00  0.00    +0.024 HD
ATOM     63  H   UNL     1     151.345 164.483 190.505  0.00  0.00    +0.024 HD
ENDBRANCH  25  60
BRANCH  31  64
ATOM     64  O   UNL     1     145.938 166.203 186.663  0.00  0.00    -0.391 OA
ATOM     65  H   UNL     1     145.412 166.838 187.194  0.00  0.00    +0.210 HD
ENDBRANCH  31  64
BRANCH  24  66
ATOM     66  O   UNL     1     152.246 168.114 191.936  0.00  0.00    -0.373 OA
BRANCH  66  67
ATOM     67  C   UNL     1     151.999 169.494 192.185  0.00  0.00    +0.037 C 
ATOM     68  H   UNL     1     151.225 169.623 192.947  0.00  0.00    +0.052 HD
ATOM     69  H   UNL     1     152.921 169.996 192.499  0.00  0.00    +0.052 HD
ATOM     70  H   UNL     1     151.653 169.953 191.255  0.00  0.00    +0.052 HD
ENDBRANCH  66  67
ENDBRANCH  24  66
BRANCH   5  71
ATOM     71  O   UNL     1     141.333 169.678 184.002  0.00  0.00    -0.379 OA
BRANCH  71  72
ATOM     72  C   UNL     1     140.251 170.571 183.767  0.00  0.00    +0.037 C 
ATOM     73  H   UNL     1     139.424 170.074 183.252  0.00  0.00    +0.052 HD
ATOM     74  H   UNL     1     140.617 171.386 183.134  0.00  0.00    +0.052 HD
ATOM     75  H   UNL     1     139.900 170.999 184.712  0.00  0.00    +0.052 HD
ENDBRANCH  71  72
ENDBRANCH   5  71
ENDBRANCH   1  36
BRANCH   1  76
ATOM     76  C   UNL     1     145.117 172.518 184.370  0.00  0.00    +0.064 C 
ATOM     77  H   UNL     1     144.102 172.392 184.759  0.00  0.00    +0.060 HD
BRANCH  76  78
ATOM     78  C   UNL     1     146.022 173.097 185.493  0.00  0.00    -0.017 C 
ATOM     79  H   UNL     1     147.054 173.034 185.144  0.00  0.00    +0.032 HD
BRANCH  78  80
ATOM     80  C   UNL     1     145.697 174.601 185.665  0.00  0.00    -0.060 C 
ATOM     81  H   UNL     1     144.925 174.918 184.955  0.00  0.00    +0.023 HD
ATOM     82  H   UNL     1     145.313 174.816 186.666  0.00  0.00    +0.023 HD
ATOM     83  H   UNL     1     146.587 175.215 185.494  0.00  0.00    +0.023 HD
ENDBRANCH  78  80
BRANCH  78  84
ATOM     84  C   UNL     1     145.901 172.455 186.885  0.00  0.00    -0.045 C 
ATOM     85  H   UNL     1     145.753 171.372 186.755  0.00  0.00    +0.027 HD
ATOM     86  H   UNL     1     146.869 172.544 187.407  0.00  0.00    +0.027 HD
BRANCH  84  87
ATOM     87  C   UNL     1     144.790 172.899 187.851  0.00  0.00    -0.015 C 
ATOM     88  H   UNL     1     145.140 173.867 188.226  0.00  0.00    +0.030 HD
ATOM     89  H   UNL     1     143.875 173.126 187.291  0.00  0.00    +0.030 HD
BRANCH  87  90
ATOM     90  C   UNL     1     144.423 172.018 189.070  0.00  0.00    +0.109 C 
ATOM     91  H   UNL     1     144.403 170.978 188.721  0.00  0.00    +0.074 HD
BRANCH  90  92
ATOM     92  C   UNL     1     143.021 172.415 189.658  0.00  0.00    +0.031 C 
ATOM     93  H   UNL     1     142.290 171.692 189.277  0.00  0.00    +0.037 HD
BRANCH  92  94
ATOM     94  C   UNL     1     142.522 173.765 189.107  0.00  0.00    -0.056 C 
ATOM     95  H   UNL     1     141.511 173.683 188.706  0.00  0.00    +0.023 HD
ATOM     96  H   UNL     1     143.185 174.150 188.329  0.00  0.00    +0.023 HD
ATOM     97  H   UNL     1     142.470 174.516 189.906  0.00  0.00    +0.023 HD
ENDBRANCH  92  94
BRANCH  92  98
ATOM     98  C   UNL     1     142.922 172.482 191.217  0.00  0.00    +0.115 C 
ATOM     99  H   UNL     1     143.899 172.201 191.638  0.00  0.00    +0.074 HD
BRANCH  98 100
ATOM    100  C   UNL     1     142.629 173.889 191.819  0.00  0.00    +0.013 C 
ATOM    101  H   UNL     1     142.383 174.591 191.020  0.00  0.00    +0.038 HD
BRANCH 100 102
ATOM    102  C   UNL     1     143.830 174.442 192.599  0.00  0.00    -0.056 C 
ATOM    103  H   UNL     1     144.761 173.925 192.327  0.00  0.00    +0.024 HD
ATOM    104  H   UNL     1     143.976 175.515 192.401  0.00  0.00    +0.024 HD
ATOM    105  H   UNL     1     143.699 174.314 193.677  0.00  0.00    +0.024 HD
ENDBRANCH 100 102
BRANCH 100 106
ATOM    106  C   UNL     1     141.442 173.838 192.769  0.00  0.00    -0.064 C 
ATOM    107  C   UNL     1     141.161 174.808 193.651  0.00  0.00    -0.005 C 
ATOM    108  H   UNL     1     140.825 172.944 192.706  0.00  0.00    +0.059 HD
ATOM    109  H   UNL     1     141.828 175.667 193.700  0.00  0.00    +0.078 HD
BRANCH 107 110
ATOM    110  N   UNL     1     140.113 174.845 194.557  0.00  0.00    -0.284 N 
ATOM    111  C   UNL     1     139.966 175.778 195.584  0.00  0.00    +0.206 C 
ATOM    112  O   UNL     1     140.695 176.717 195.883  0.00  0.00    -0.279 OA
ATOM    113  H   UNL     1     139.056 175.594 196.180  0.00  0.00    +0.126 HD
BRANCH 110 114
ATOM    114  C   UNL     1     139.085 173.816 194.415  0.00  0.00    +0.007 C 
ATOM    115  H   UNL     1     138.892 173.370 195.398  0.00  0.00    +0.043 HD
ATOM    116  H   UNL     1     139.397 173.020 193.730  0.00  0.00    +0.043 HD
ATOM    117  H   UNL     1     138.168 174.271 194.030  0.00  0.00    +0.043 HD
ENDBRANCH 110 114
ENDBRANCH 107 110
ENDBRANCH 100 106
ENDBRANCH  98 100
BRANCH  98 118
ATOM    118  O   UNL     1     141.909 171.561 191.686  0.00  0.00    -0.461 OA
BRANCH 118 119
ATOM    119  C   UNL     1     142.128 170.239 191.426  0.00  0.00    +0.304 C 
ATOM    120  O   UNL     1     143.164 169.627 191.640  0.00  0.00    -0.251 OA
BRANCH 119 121
ATOM    121  C   UNL     1     140.916 169.624 190.795  0.00  0.00    +0.033 C 
ATOM    122  H   UNL     1     141.228 168.858 190.083  0.00  0.00    +0.034 HD
ATOM    123  H   UNL     1     140.320 170.396 190.300  0.00  0.00    +0.034 HD
ATOM    124  H   UNL     1     140.294 169.170 191.571  0.00  0.00    +0.034 HD
ENDBRANCH 119 121
ENDBRANCH 118 119
ENDBRANCH  98 118
ENDBRANCH  92  98
ENDBRANCH  90  92
BRANCH  90 125
ATOM    125  O   UNL     1     145.455 172.157 190.081  0.00  0.00    -0.459 OA
BRANCH 125 126
ATOM    126  C   UNL     1     146.420 171.177 190.105  0.00  0.00    +0.339 C 
ATOM    127  O   UNL     1     146.269 170.058 189.633  0.00  0.00    -0.248 OA
BRANCH 126 128
ATOM    128  C   UNL     1     147.688 171.608 190.862  0.00  0.00    +0.178 C 
ATOM    129  H   UNL     1     148.207 172.331 190.211  0.00  0.00    +0.074 HD
BRANCH 128 130
ATOM    130  C   UNL     1     147.287 172.323 192.154  0.00  0.00    +0.084 C 
ATOM    131  H   UNL     1     146.211 172.233 192.314  0.00  0.00    +0.059 HD
ATOM    132  H   UNL     1     147.772 171.832 193.006  0.00  0.00    +0.059 HD
BRANCH 130 133
ATOM    133  O   UNL     1     147.669 173.696 192.126  0.00  0.00    -0.380 OA
BRANCH 133 134
ATOM    134  C   UNL     1     149.081 173.849 192.174  0.00  0.00    +0.037 C 
ATOM    135  H   UNL     1     149.398 174.077 193.197  0.00  0.00    +0.052 HD
ATOM    136  H   UNL     1     149.541 172.906 191.868  0.00  0.00    +0.052 HD
ATOM    137  H   UNL     1     149.414 174.641 191.496  0.00  0.00    +0.052 HD
ENDBRANCH 133 134
ENDBRANCH 130 133
ENDBRANCH 128 130
BRANCH 128 138
ATOM    138  O   UNL     1     148.589 170.553 191.211  0.00  0.00    -0.366 OA
BRANCH 138 139
ATOM    139  C   UNL     1     148.510 170.210 192.587  0.00  0.00    +0.038 C 
ATOM    140  H   UNL     1     147.482 169.905 192.805  0.00  0.00    +0.052 HD
ATOM    141  H   UNL     1     148.750 171.077 193.212  0.00  0.00    +0.052 HD
ATOM    142  H   UNL     1     149.178 169.379 192.825  0.00  0.00    +0.052 HD
ENDBRANCH 138 139
ENDBRANCH 128 138
ENDBRANCH 126 128
ENDBRANCH 125 126
ENDBRANCH  90 125
ENDBRANCH  87  90
ENDBRANCH  84  87
ENDBRANCH  78  84
ENDBRANCH  76  78
BRANCH  76 143
ATOM    143  O   UNL     1     145.154 173.477 183.296  0.00  0.00    -0.379 OA
BRANCH 143 144
ATOM    144  C   UNL     1     145.993 173.097 182.213  0.00  0.00    +0.037 C 
ATOM    145  H   UNL     1     145.834 173.806 181.392  0.00  0.00    +0.052 HD
ATOM    146  H   UNL     1     145.765 172.089 181.849  0.00  0.00    +0.052 HD
ATOM    147  H   UNL     1     147.043 173.161 182.505  0.00  0.00    +0.052 HD
ENDBRANCH 143 144
ENDBRANCH  76 143
ENDBRANCH   1  76
TORSDOF 35
ENDMDL
MODEL 9
REMARK VINA RESULT:      -5.4      3.189      6.188
REMARK  Name = Mycalolide B_conf3
REMARK  35 active torsions:
REMARK  status: ('A' for Active; 'I' for Inactive)
REMARK    1  A    between atoms: C_1  and  C_2
REMARK    2  A    between atoms: C_3  and  O_72
REMARK    3  A    between atoms: C_22  and  O_70
REMARK    4  A    between atoms: C_23  and  C_69
REMARK    5  A    between atoms: C_29  and  O_68
REMARK    6  A    between atoms: C_34  and  C_35
REMARK    7  A    between atoms: C_35  and  C_36
REMARK    8  A    between atoms: C_36  and  C_37
REMARK    9  A    between atoms: C_36  and  O_66
REMARK   10  A    between atoms: C_37  and  C_38
REMARK   11  A    between atoms: C_37  and  C_39
REMARK   12  A    between atoms: C_39  and  C_40
REMARK   13  A    between atoms: C_40  and  C_41
REMARK   14  A    between atoms: C_41  and  C_42
REMARK   15  A    between atoms: C_41  and  O_57
REMARK   16  A    between atoms: C_42  and  C_43
REMARK   17  A    between atoms: C_42  and  C_44
REMARK   18  A    between atoms: C_44  and  C_45
REMARK   19  A    between atoms: C_44  and  O_53
REMARK   20  A    between atoms: C_45  and  C_46
REMARK   21  A    between atoms: C_45  and  C_47
REMARK   22  A    between atoms: C_48  and  N_49
REMARK   23  A    between atoms: N_49  and  C_50
REMARK   24  A    between atoms: O_53  and  C_54
REMARK   25  A    between atoms: C_54  and  C_56
REMARK   26  A    between atoms: O_57  and  C_58
REMARK   27  A    between atoms: C_58  and  C_60
REMARK   28  A    between atoms: C_60  and  C_61
REMARK   29  A    between atoms: C_60  and  O_64
REMARK   30  A    between atoms: C_61  and  O_62
REMARK   31  A    between atoms: O_62  and  C_63
REMARK   32  A    between atoms: O_64  and  C_65
REMARK   33  A    between atoms: O_66  and  C_67
REMARK   34  A    between atoms: O_70  and  C_71
REMARK   35  A    between atoms: O_72  and  C_73
REMARK                            x       y       z     vdW  Elec       q    Type
REMARK                         _______ _______ _______ _____ _____    ______ ____
ROOT
ATOM      1  C   UNL     1     149.517 163.745 186.228  0.00  0.00    +0.011 C 
ATOM      2  H   UNL     1     148.757 162.963 186.125  0.00  0.00    +0.033 HD
ATOM      3  H   UNL     1     149.303 164.524 185.487  0.00  0.00    +0.033 HD
ENDROOT
BRANCH   1  36
ATOM      4  C   UNL     1     150.945 161.593 185.962  0.00  0.00    +0.020 C 
ATOM      5  C   UNL     1     150.751 160.969 187.374  0.00  0.00    +0.068 C 
ATOM      6  C   UNL     1     151.690 161.525 188.477  0.00  0.00    -0.008 C 
ATOM      7  C   UNL     1     153.121 161.772 188.083  0.00  0.00    -0.077 C 
ATOM      8  C   UNL     1     153.992 160.844 187.660  0.00  0.00    -0.003 C 
ATOM      9  C   UNL     1     155.316 161.230 187.305  0.00  0.00    +0.220 A 
ATOM     10  N   UNL     1     155.694 162.442 186.910  0.00  0.00    -0.205 NA
ATOM     11  C   UNL     1     157.062 162.386 186.824  0.00  0.00    +0.164 A 
ATOM     12  C   UNL     1     157.492 161.122 187.113  0.00  0.00    +0.125 A 
ATOM     13  O   UNL     1     156.396 160.359 187.380  0.00  0.00    -0.443 OA
ATOM     14  C   UNL     1     157.960 163.608 186.488  0.00  0.00    +0.250 A 
ATOM     15  N   UNL     1     157.467 164.780 186.116  0.00  0.00    -0.203 NA
ATOM     16  C   UNL     1     158.567 165.595 186.024  0.00  0.00    +0.164 A 
ATOM     17  C   UNL     1     159.701 164.879 186.296  0.00  0.00    +0.125 A 
ATOM     18  O   UNL     1     159.333 163.595 186.573  0.00  0.00    -0.442 OA
ATOM     19  C   UNL     1     158.524 167.105 185.644  0.00  0.00    +0.249 A 
ATOM     20  N   UNL     1     157.421 167.726 185.262  0.00  0.00    -0.210 NA
ATOM     21  C   UNL     1     157.828 169.004 184.942  0.00  0.00    +0.109 A 
ATOM     22  C   UNL     1     159.165 169.127 185.228  0.00  0.00    +0.118 A 
ATOM     23  O   UNL     1     159.637 167.914 185.631  0.00  0.00    -0.442 OA
ATOM     24  C   UNL     1     156.871 170.014 184.379  0.00  0.00    +0.113 C 
ATOM     25  C   UNL     1     156.793 170.018 182.838  0.00  0.00    +0.051 C 
ATOM     26  C   UNL     1     155.757 169.030 182.332  0.00  0.00    +0.161 C 
ATOM     27  O   UNL     1     154.692 169.435 181.862  0.00  0.00    -0.292 OA
ATOM     28  C   UNL     1     156.027 167.567 182.440  0.00  0.00    -0.023 C 
ATOM     29  C   UNL     1     155.064 166.673 182.164  0.00  0.00    -0.078 C 
ATOM     30  C   UNL     1     155.219 165.195 182.386  0.00  0.00    -0.008 C 
ATOM     31  C   UNL     1     154.349 164.685 183.546  0.00  0.00    +0.069 C 
ATOM     32  C   UNL     1     152.859 164.690 183.209  0.00  0.00    +0.071 C 
ATOM     33  C   UNL     1     152.092 164.656 184.499  0.00  0.00    +0.310 C 
ATOM     34  O   UNL     1     152.173 165.539 185.341  0.00  0.00    -0.251 OA
ATOM     35  O   UNL     1     151.353 163.524 184.607  0.00  0.00    -0.461 OA
ATOM     36  C   UNL     1     150.909 163.146 185.937  0.00  0.00    +0.110 C 
ATOM     37  H   UNL     1     151.930 161.275 185.585  0.00  0.00    +0.036 HD
ATOM     38  H   UNL     1     149.715 161.141 187.692  0.00  0.00    +0.060 HD
ATOM     39  H   UNL     1     151.278 162.476 188.826  0.00  0.00    +0.033 HD
ATOM     40  H   UNL     1     151.690 160.864 189.351  0.00  0.00    +0.033 HD
ATOM     41  H   UNL     1     153.446 162.814 188.148  0.00  0.00    +0.057 HD
ATOM     42  H   UNL     1     153.726 159.797 187.601  0.00  0.00    +0.067 HD
ATOM     43  H   UNL     1     158.449 160.624 187.163  0.00  0.00    +0.105 HD
ATOM     44  H   UNL     1     160.759 165.103 186.342  0.00  0.00    +0.105 HD
ATOM     45  H   UNL     1     159.884 169.932 185.147  0.00  0.00    +0.105 HD
ATOM     46  H   UNL     1     155.883 169.769 184.793  0.00  0.00    +0.067 HD
ATOM     47  H   UNL     1     156.407 171.003 182.535  0.00  0.00    +0.041 HD
ATOM     48  H   UNL     1     156.993 167.252 182.814  0.00  0.00    +0.065 HD
ATOM     49  H   UNL     1     154.102 167.022 181.793  0.00  0.00    +0.057 HD
ATOM     50  H   UNL     1     154.972 164.657 181.463  0.00  0.00    +0.033 HD
ATOM     51  H   UNL     1     156.268 164.948 182.596  0.00  0.00    +0.033 HD
ATOM     52  H   UNL     1     154.556 165.284 184.442  0.00  0.00    +0.060 HD
ATOM     53  H   UNL     1     152.537 165.599 182.688  0.00  0.00    +0.040 HD
ATOM     54  H   UNL     1     152.583 163.831 182.583  0.00  0.00    +0.040 HD
ATOM     55  H   UNL     1     151.655 163.504 186.649  0.00  0.00    +0.074 HD
BRANCH   4  56
ATOM     56  C   UNL     1     149.944 160.992 184.957  0.00  0.00    -0.057 C 
ATOM     57  H   UNL     1     150.234 159.977 184.673  0.00  0.00    +0.023 HD
ATOM     58  H   UNL     1     149.886 161.594 184.049  0.00  0.00    +0.023 HD
ATOM     59  H   UNL     1     148.939 160.930 185.386  0.00  0.00    +0.023 HD
ENDBRANCH   4  56
BRANCH  25  60
ATOM     60  C   UNL     1     158.128 169.887 182.105  0.00  0.00    -0.053 C 
ATOM     61  H   UNL     1     158.141 170.420 181.148  0.00  0.00    +0.024 HD
ATOM     62  H   UNL     1     158.368 168.834 181.920  0.00  0.00    +0.024 HD
ATOM     63  H   UNL     1     158.934 170.313 182.717  0.00  0.00    +0.024 HD
ENDBRANCH  25  60
BRANCH  31  64
ATOM     64  O   UNL     1     154.730 163.336 183.837  0.00  0.00    -0.391 OA
ATOM     65  H   UNL     1     153.950 162.905 184.247  0.00  0.00    +0.210 HD
ENDBRANCH  31  64
BRANCH  24  66
ATOM     66  O   UNL     1     157.246 171.333 184.825  0.00  0.00    -0.373 OA
BRANCH  66  67
ATOM     67  C   UNL     1     156.492 172.352 184.177  0.00  0.00    +0.037 C 
ATOM     68  H   UNL     1     155.937 172.952 184.905  0.00  0.00    +0.052 HD
ATOM     69  H   UNL     1     157.151 172.996 183.585  0.00  0.00    +0.052 HD
ATOM     70  H   UNL     1     155.777 171.873 183.503  0.00  0.00    +0.052 HD
ENDBRANCH  66  67
ENDBRANCH  24  66
BRANCH   5  71
ATOM     71  O   UNL     1     150.954 159.544 187.260  0.00  0.00    -0.379 OA
BRANCH  71  72
ATOM     72  C   UNL     1     150.446 158.825 188.378  0.00  0.00    +0.037 C 
ATOM     73  H   UNL     1     150.770 159.269 189.323  0.00  0.00    +0.052 HD
ATOM     74  H   UNL     1     150.829 157.801 188.324  0.00  0.00    +0.052 HD
ATOM     75  H   UNL     1     149.352 158.787 188.338  0.00  0.00    +0.052 HD
ENDBRANCH  71  72
ENDBRANCH   5  71
ENDBRANCH   1  36
BRANCH   1  76
ATOM     76  C   UNL     1     149.371 164.323 187.645  0.00  0.00    +0.064 C 
ATOM     77  H   UNL     1     150.003 163.764 188.342  0.00  0.00    +0.060 HD
BRANCH  76  78
ATOM     78  C   UNL     1     149.731 165.832 187.730  0.00  0.00    -0.017 C 
ATOM     79  H   UNL     1     150.043 166.149 186.734  0.00  0.00    +0.032 HD
BRANCH  78  80
ATOM     80  C   UNL     1     148.449 166.629 188.073  0.00  0.00    -0.060 C 
ATOM     81  H   UNL     1     148.400 167.560 187.495  0.00  0.00    +0.023 HD
ATOM     82  H   UNL     1     147.547 166.060 187.830  0.00  0.00    +0.023 HD
ATOM     83  H   UNL     1     148.422 166.888 189.136  0.00  0.00    +0.023 HD
ENDBRANCH  78  80
BRANCH  78  84
ATOM     84  C   UNL     1     150.794 166.237 188.764  0.00  0.00    -0.045 C 
ATOM     85  H   UNL     1     150.814 165.473 189.557  0.00  0.00    +0.027 HD
ATOM     86  H   UNL     1     151.791 166.180 188.296  0.00  0.00    +0.027 HD
BRANCH  84  87
ATOM     87  C   UNL     1     150.685 167.580 189.506  0.00  0.00    -0.015 C 
ATOM     88  H   UNL     1     151.636 168.078 189.287  0.00  0.00    +0.030 HD
ATOM     89  H   UNL     1     149.921 168.208 189.033  0.00  0.00    +0.030 HD
BRANCH  87  90
ATOM     90  C   UNL     1     150.474 167.606 191.039  0.00  0.00    +0.109 C 
ATOM     91  H   UNL     1     151.416 167.945 191.487  0.00  0.00    +0.074 HD
BRANCH  90  92
ATOM     92  C   UNL     1     150.102 166.180 191.585  0.00  0.00    +0.031 C 
ATOM     93  H   UNL     1     150.342 165.455 190.798  0.00  0.00    +0.037 HD
BRANCH  92  94
ATOM     94  C   UNL     1     148.584 166.013 191.786  0.00  0.00    -0.056 C 
ATOM     95  H   UNL     1     148.343 165.044 192.226  0.00  0.00    +0.023 HD
ATOM     96  H   UNL     1     148.040 166.124 190.844  0.00  0.00    +0.023 HD
ATOM     97  H   UNL     1     148.199 166.766 192.486  0.00  0.00    +0.023 HD
ENDBRANCH  92  94
BRANCH  92  98
ATOM     98  C   UNL     1     150.800 165.749 192.917  0.00  0.00    +0.115 C 
ATOM     99  H   UNL     1     150.594 164.682 193.086  0.00  0.00    +0.074 HD
BRANCH  98 100
ATOM    100  C   UNL     1     152.355 165.854 192.933  0.00  0.00    +0.013 C 
ATOM    101  H   UNL     1     152.762 165.232 193.733  0.00  0.00    +0.038 HD
BRANCH 100 102
ATOM    102  C   UNL     1     152.832 167.297 193.151  0.00  0.00    -0.056 C 
ATOM    103  H   UNL     1     152.013 167.945 193.494  0.00  0.00    +0.024 HD
ATOM    104  H   UNL     1     153.632 167.345 193.905  0.00  0.00    +0.024 HD
ATOM    105  H   UNL     1     153.217 167.734 192.225  0.00  0.00    +0.024 HD
ENDBRANCH 100 102
BRANCH 100 106
ATOM    106  C   UNL     1     152.947 165.361 191.622  0.00  0.00    -0.064 C 
ATOM    107  C   UNL     1     153.994 165.944 191.020  0.00  0.00    -0.005 C 
ATOM    108  H   UNL     1     152.455 164.500 191.175  0.00  0.00    +0.059 HD
ATOM    109  H   UNL     1     154.431 166.825 191.488  0.00  0.00    +0.078 HD
BRANCH 107 110
ATOM    110  N   UNL     1     154.594 165.573 189.827  0.00  0.00    -0.284 N 
ATOM    111  C   UNL     1     154.568 166.315 188.645  0.00  0.00    +0.206 C 
ATOM    112  O   UNL     1     154.039 167.400 188.427  0.00  0.00    -0.279 OA
ATOM    113  H   UNL     1     155.106 165.806 187.828  0.00  0.00    +0.126 HD
BRANCH 110 114
ATOM    114  C   UNL     1     155.305 164.297 189.818  0.00  0.00    +0.007 C 
ATOM    115  H   UNL     1     155.607 164.065 188.790  0.00  0.00    +0.043 HD
ATOM    116  H   UNL     1     154.679 163.478 190.187  0.00  0.00    +0.043 HD
ATOM    117  H   UNL     1     156.193 164.374 190.454  0.00  0.00    +0.043 HD
ENDBRANCH 110 114
ENDBRANCH 107 110
ENDBRANCH 100 106
ENDBRANCH  98 100
BRANCH  98 118
ATOM    118  O   UNL     1     150.277 166.525 194.020  0.00  0.00    -0.461 OA
BRANCH 118 119
ATOM    119  C   UNL     1     149.726 165.818 195.049  0.00  0.00    +0.304 C 
ATOM    120  O   UNL     1     148.626 165.285 195.046  0.00  0.00    -0.251 OA
BRANCH 119 121
ATOM    121  C   UNL     1     150.651 165.805 196.228  0.00  0.00    +0.033 C 
ATOM    122  H   UNL     1     151.273 166.702 196.210  0.00  0.00    +0.034 HD
ATOM    123  H   UNL     1     151.268 164.903 196.208  0.00  0.00    +0.034 HD
ATOM    124  H   UNL     1     150.063 165.787 197.150  0.00  0.00    +0.034 HD
ENDBRANCH 119 121
ENDBRANCH 118 119
ENDBRANCH  98 118
ENDBRANCH  92  98
ENDBRANCH  90  92
BRANCH  90 125
ATOM    125  O   UNL     1     149.428 168.559 191.358  0.00  0.00    -0.459 OA
BRANCH 125 126
ATOM    126  C   UNL     1     149.844 169.803 191.772  0.00  0.00    +0.339 C 
ATOM    127  O   UNL     1     150.921 170.019 192.314  0.00  0.00    -0.248 OA
BRANCH 126 128
ATOM    128  C   UNL     1     148.778 170.891 191.557  0.00  0.00    +0.178 C 
ATOM    129  H   UNL     1     149.305 171.764 191.139  0.00  0.00    +0.074 HD
BRANCH 128 130
ATOM    130  C   UNL     1     147.760 170.403 190.524  0.00  0.00    +0.084 C 
ATOM    131  H   UNL     1     147.937 170.891 189.563  0.00  0.00    +0.059 HD
ATOM    132  H   UNL     1     147.897 169.328 190.358  0.00  0.00    +0.059 HD
BRANCH 130 133
ATOM    133  O   UNL     1     146.424 170.642 190.959  0.00  0.00    -0.380 OA
BRANCH 133 134
ATOM    134  C   UNL     1     145.539 170.821 189.862  0.00  0.00    +0.037 C 
ATOM    135  H   UNL     1     144.580 170.335 190.071  0.00  0.00    +0.052 HD
ATOM    136  H   UNL     1     145.365 171.892 189.729  0.00  0.00    +0.052 HD
ATOM    137  H   UNL     1     145.968 170.416 188.940  0.00  0.00    +0.052 HD
ENDBRANCH 133 134
ENDBRANCH 130 133
ENDBRANCH 128 130
BRANCH 128 138
ATOM    138  O   UNL     1     148.055 171.288 192.725  0.00  0.00    -0.366 OA
BRANCH 138 139
ATOM    139  C   UNL     1     148.592 172.462 193.319  0.00  0.00    +0.038 C 
ATOM    140  H   UNL     1     149.070 172.180 194.261  0.00  0.00    +0.052 HD
ATOM    141  H   UNL     1     147.793 173.178 193.540  0.00  0.00    +0.052 HD
ATOM    142  H   UNL     1     149.342 172.923 192.671  0.00  0.00    +0.052 HD
ENDBRANCH 138 139
ENDBRANCH 128 138
ENDBRANCH 126 128
ENDBRANCH 125 126
ENDBRANCH  90 125
ENDBRANCH  87  90
ENDBRANCH  84  87
ENDBRANCH  78  84
ENDBRANCH  76  78
BRANCH  76 143
ATOM    143  O   UNL     1     147.979 164.225 188.003  0.00  0.00    -0.379 OA
BRANCH 143 144
ATOM    144  C   UNL     1     147.367 163.003 187.611  0.00  0.00    +0.037 C 
ATOM    145  H   UNL     1     146.916 162.546 188.499  0.00  0.00    +0.052 HD
ATOM    146  H   UNL     1     148.090 162.298 187.186  0.00  0.00    +0.052 HD
ATOM    147  H   UNL     1     146.565 163.194 186.894  0.00  0.00    +0.052 HD
ENDBRANCH 143 144
ENDBRANCH  76 143
ENDBRANCH   1  76
TORSDOF 35
ENDMDL
MODEL 10
REMARK VINA RESULT:      -5.3      2.464      8.446
REMARK  Name = Mycalolide B_conf3
REMARK  35 active torsions:
REMARK  status: ('A' for Active; 'I' for Inactive)
REMARK    1  A    between atoms: C_1  and  C_2
REMARK    2  A    between atoms: C_3  and  O_72
REMARK    3  A    between atoms: C_22  and  O_70
REMARK    4  A    between atoms: C_23  and  C_69
REMARK    5  A    between atoms: C_29  and  O_68
REMARK    6  A    between atoms: C_34  and  C_35
REMARK    7  A    between atoms: C_35  and  C_36
REMARK    8  A    between atoms: C_36  and  C_37
REMARK    9  A    between atoms: C_36  and  O_66
REMARK   10  A    between atoms: C_37  and  C_38
REMARK   11  A    between atoms: C_37  and  C_39
REMARK   12  A    between atoms: C_39  and  C_40
REMARK   13  A    between atoms: C_40  and  C_41
REMARK   14  A    between atoms: C_41  and  C_42
REMARK   15  A    between atoms: C_41  and  O_57
REMARK   16  A    between atoms: C_42  and  C_43
REMARK   17  A    between atoms: C_42  and  C_44
REMARK   18  A    between atoms: C_44  and  C_45
REMARK   19  A    between atoms: C_44  and  O_53
REMARK   20  A    between atoms: C_45  and  C_46
REMARK   21  A    between atoms: C_45  and  C_47
REMARK   22  A    between atoms: C_48  and  N_49
REMARK   23  A    between atoms: N_49  and  C_50
REMARK   24  A    between atoms: O_53  and  C_54
REMARK   25  A    between atoms: C_54  and  C_56
REMARK   26  A    between atoms: O_57  and  C_58
REMARK   27  A    between atoms: C_58  and  C_60
REMARK   28  A    between atoms: C_60  and  C_61
REMARK   29  A    between atoms: C_60  and  O_64
REMARK   30  A    between atoms: C_61  and  O_62
REMARK   31  A    between atoms: O_62  and  C_63
REMARK   32  A    between atoms: O_64  and  C_65
REMARK   33  A    between atoms: O_66  and  C_67
REMARK   34  A    between atoms: O_70  and  C_71
REMARK   35  A    between atoms: O_72  and  C_73
REMARK                            x       y       z     vdW  Elec       q    Type
REMARK                         _______ _______ _______ _____ _____    ______ ____
ROOT
ATOM      1  C   UNL     1     154.999 164.440 189.994  0.00  0.00    +0.011 C 
ATOM      2  H   UNL     1     156.083 164.592 190.039  0.00  0.00    +0.033 HD
ATOM      3  H   UNL     1     154.742 163.630 190.686  0.00  0.00    +0.033 HD
ENDROOT
BRANCH   1  36
ATOM      4  C   UNL     1     155.773 164.063 187.545  0.00  0.00    +0.020 C 
ATOM      5  C   UNL     1     156.274 165.495 187.201  0.00  0.00    +0.068 C 
ATOM      6  C   UNL     1     155.172 166.493 186.759  0.00  0.00    -0.008 C 
ATOM      7  C   UNL     1     154.104 165.957 185.845  0.00  0.00    -0.077 C 
ATOM      8  C   UNL     1     154.299 165.462 184.613  0.00  0.00    -0.003 C 
ATOM      9  C   UNL     1     153.189 164.975 183.867  0.00  0.00    +0.220 A 
ATOM     10  N   UNL     1     152.044 164.529 184.375  0.00  0.00    -0.205 NA
ATOM     11  C   UNL     1     151.228 164.310 183.294  0.00  0.00    +0.164 A 
ATOM     12  C   UNL     1     151.909 164.572 182.139  0.00  0.00    +0.125 A 
ATOM     13  O   UNL     1     153.171 164.954 182.477  0.00  0.00    -0.443 OA
ATOM     14  C   UNL     1     149.741 163.872 183.406  0.00  0.00    +0.250 A 
ATOM     15  N   UNL     1     149.177 163.535 184.556  0.00  0.00    -0.203 NA
ATOM     16  C   UNL     1     147.859 163.325 184.237  0.00  0.00    +0.164 A 
ATOM     17  C   UNL     1     147.674 163.494 182.892  0.00  0.00    +0.125 A 
ATOM     18  O   UNL     1     148.876 163.822 182.338  0.00  0.00    -0.442 OA
ATOM     19  C   UNL     1     146.750 162.933 185.257  0.00  0.00    +0.249 A 
ATOM     20  N   UNL     1     146.997 162.652 186.526  0.00  0.00    -0.210 NA
ATOM     21  C   UNL     1     145.777 162.278 187.049  0.00  0.00    +0.109 A 
ATOM     22  C   UNL     1     144.816 162.429 186.082  0.00  0.00    +0.118 A 
ATOM     23  O   UNL     1     145.423 162.799 184.919  0.00  0.00    -0.442 OA
ATOM     24  C   UNL     1     145.645 161.799 188.466  0.00  0.00    +0.113 C 
ATOM     25  C   UNL     1     145.803 160.273 188.632  0.00  0.00    +0.051 C 
ATOM     26  C   UNL     1     147.257 159.883 188.832  0.00  0.00    +0.161 C 
ATOM     27  O   UNL     1     147.653 159.516 189.940  0.00  0.00    -0.292 OA
ATOM     28  C   UNL     1     148.205 159.983 187.686  0.00  0.00    -0.023 C 
ATOM     29  C   UNL     1     149.524 159.814 187.875  0.00  0.00    -0.078 C 
ATOM     30  C   UNL     1     150.550 160.039 186.799  0.00  0.00    -0.008 C 
ATOM     31  C   UNL     1     151.410 161.285 187.064  0.00  0.00    +0.069 C 
ATOM     32  C   UNL     1     152.373 161.096 188.234  0.00  0.00    +0.071 C 
ATOM     33  C   UNL     1     152.791 162.455 188.714  0.00  0.00    +0.310 C 
ATOM     34  O   UNL     1     151.998 163.275 189.157  0.00  0.00    -0.251 OA
ATOM     35  O   UNL     1     154.124 162.650 188.553  0.00  0.00    -0.461 OA
ATOM     36  C   UNL     1     154.600 164.022 188.563  0.00  0.00    +0.110 C 
ATOM     37  H   UNL     1     155.422 163.595 186.611  0.00  0.00    +0.036 HD
ATOM     38  H   UNL     1     156.774 165.910 188.085  0.00  0.00    +0.060 HD
ATOM     39  H   UNL     1     154.675 166.868 187.658  0.00  0.00    +0.033 HD
ATOM     40  H   UNL     1     155.618 167.371 186.279  0.00  0.00    +0.033 HD
ATOM     41  H   UNL     1     153.091 165.977 186.254  0.00  0.00    +0.057 HD
ATOM     42  H   UNL     1     155.279 165.443 184.155  0.00  0.00    +0.067 HD
ATOM     43  H   UNL     1     151.683 164.534 181.085  0.00  0.00    +0.105 HD
ATOM     44  H   UNL     1     146.827 163.433 182.219  0.00  0.00    +0.105 HD
ATOM     45  H   UNL     1     143.746 162.268 186.048  0.00  0.00    +0.105 HD
ATOM     46  H   UNL     1     146.429 162.311 189.040  0.00  0.00    +0.067 HD
ATOM     47  H   UNL     1     145.310 159.997 189.576  0.00  0.00    +0.041 HD
ATOM     48  H   UNL     1     147.811 160.264 186.718  0.00  0.00    +0.065 HD
ATOM     49  H   UNL     1     149.891 159.535 188.861  0.00  0.00    +0.057 HD
ATOM     50  H   UNL     1     151.187 159.151 186.708  0.00  0.00    +0.033 HD
ATOM     51  H   UNL     1     150.061 160.148 185.822  0.00  0.00    +0.033 HD
ATOM     52  H   UNL     1     150.752 162.149 187.226  0.00  0.00    +0.060 HD
ATOM     53  H   UNL     1     151.914 160.597 189.096  0.00  0.00    +0.040 HD
ATOM     54  H   UNL     1     153.255 160.511 187.941  0.00  0.00    +0.040 HD
ATOM     55  H   UNL     1     153.801 164.652 188.171  0.00  0.00    +0.074 HD
BRANCH   4  56
ATOM     56  C   UNL     1     156.942 163.169 187.999  0.00  0.00    -0.057 C 
ATOM     57  H   UNL     1     156.576 162.256 188.477  0.00  0.00    +0.023 HD
ATOM     58  H   UNL     1     157.585 163.689 188.712  0.00  0.00    +0.023 HD
ATOM     59  H   UNL     1     157.560 162.860 187.150  0.00  0.00    +0.023 HD
ENDBRANCH   4  56
BRANCH  25  60
ATOM     60  C   UNL     1     145.112 159.414 187.573  0.00  0.00    -0.053 C 
ATOM     61  H   UNL     1     144.056 159.229 187.799  0.00  0.00    +0.024 HD
ATOM     62  H   UNL     1     145.619 158.449 187.465  0.00  0.00    +0.024 HD
ATOM     63  H   UNL     1     145.144 159.922 186.600  0.00  0.00    +0.024 HD
ENDBRANCH  25  60
BRANCH  31  64
ATOM     64  O   UNL     1     152.187 161.554 185.893  0.00  0.00    -0.391 OA
ATOM     65  H   UNL     1     152.769 160.777 185.755  0.00  0.00    +0.210 HD
ENDBRANCH  31  64
BRANCH  24  66
ATOM     66  O   UNL     1     144.359 162.190 188.988  0.00  0.00    -0.373 OA
BRANCH  66  67
ATOM     67  C   UNL     1     144.330 163.561 189.368  0.00  0.00    +0.037 C 
ATOM     68  H   UNL     1     144.505 164.211 188.505  0.00  0.00    +0.052 HD
ATOM     69  H   UNL     1     143.370 163.808 189.835  0.00  0.00    +0.052 HD
ATOM     70  H   UNL     1     145.125 163.731 190.099  0.00  0.00    +0.052 HD
ENDBRANCH  66  67
ENDBRANCH  24  66
BRANCH   5  71
ATOM     71  O   UNL     1     157.253 165.380 186.145  0.00  0.00    -0.379 OA
BRANCH  71  72
ATOM     72  C   UNL     1     157.903 166.613 185.861  0.00  0.00    +0.037 C 
ATOM     73  H   UNL     1     157.183 167.424 185.722  0.00  0.00    +0.052 HD
ATOM     74  H   UNL     1     158.473 166.489 184.934  0.00  0.00    +0.052 HD
ATOM     75  H   UNL     1     158.602 166.866 186.665  0.00  0.00    +0.052 HD
ENDBRANCH  71  72
ENDBRANCH   5  71
ENDBRANCH   1  36
BRANCH   1  76
ATOM     76  C   UNL     1     154.346 165.750 190.466  0.00  0.00    +0.064 C 
ATOM     77  H   UNL     1     153.912 166.278 189.611  0.00  0.00    +0.060 HD
BRANCH  76  78
ATOM     78  C   UNL     1     153.245 165.532 191.541  0.00  0.00    -0.017 C 
ATOM     79  H   UNL     1     153.365 164.520 191.929  0.00  0.00    +0.032 HD
BRANCH  78  80
ATOM     80  C   UNL     1     153.507 166.499 192.720  0.00  0.00    -0.060 C 
ATOM     81  H   UNL     1     154.572 166.751 192.791  0.00  0.00    +0.023 HD
ATOM     82  H   UNL     1     152.968 167.442 192.593  0.00  0.00    +0.023 HD
ATOM     83  H   UNL     1     153.202 166.049 193.670  0.00  0.00    +0.023 HD
ENDBRANCH  78  80
BRANCH  78  84
ATOM     84  C   UNL     1     151.788 165.754 191.100  0.00  0.00    -0.045 C 
ATOM     85  H   UNL     1     151.335 164.771 190.898  0.00  0.00    +0.027 HD
ATOM     86  H   UNL     1     151.213 166.157 191.951  0.00  0.00    +0.027 HD
BRANCH  84  87
ATOM     87  C   UNL     1     151.474 166.603 189.858  0.00  0.00    -0.015 C 
ATOM     88  H   UNL     1     152.007 167.543 190.041  0.00  0.00    +0.030 HD
ATOM     89  H   UNL     1     151.957 166.170 188.975  0.00  0.00    +0.030 HD
BRANCH  87  90
ATOM     90  C   UNL     1     150.007 166.949 189.505  0.00  0.00    +0.109 C 
ATOM     91  H   UNL     1     150.003 167.974 189.115  0.00  0.00    +0.074 HD
BRANCH  90  92
ATOM     92  C   UNL     1     149.079 166.851 190.770  0.00  0.00    +0.031 C 
ATOM     93  H   UNL     1     149.099 165.808 191.109  0.00  0.00    +0.037 HD
BRANCH  92  94
ATOM     94  C   UNL     1     147.598 167.096 190.424  0.00  0.00    -0.056 C 
ATOM     95  H   UNL     1     147.003 167.274 191.321  0.00  0.00    +0.023 HD
ATOM     96  H   UNL     1     147.171 166.255 189.872  0.00  0.00    +0.023 HD
ATOM     97  H   UNL     1     147.487 167.996 189.805  0.00  0.00    +0.023 HD
ENDBRANCH  92  94
BRANCH  92  98
ATOM     98  C   UNL     1     149.443 167.793 191.964  0.00  0.00    +0.115 C 
ATOM     99  H   UNL     1     150.297 167.355 192.502  0.00  0.00    +0.074 HD
BRANCH  98 100
ATOM    100  C   UNL     1     149.918 169.226 191.578  0.00  0.00    +0.013 C 
ATOM    101  H   UNL     1     150.003 169.309 190.492  0.00  0.00    +0.038 HD
BRANCH 100 102
ATOM    102  C   UNL     1     151.281 169.566 192.198  0.00  0.00    -0.056 C 
ATOM    103  H   UNL     1     151.230 169.591 193.296  0.00  0.00    +0.024 HD
ATOM    104  H   UNL     1     152.045 168.824 191.918  0.00  0.00    +0.024 HD
ATOM    105  H   UNL     1     151.633 170.549 191.873  0.00  0.00    +0.024 HD
ENDBRANCH 100 102
BRANCH 100 106
ATOM    106  C   UNL     1     148.921 170.275 192.044  0.00  0.00    -0.064 C 
ATOM    107  C   UNL     1     148.699 171.424 191.389  0.00  0.00    -0.005 C 
ATOM    108  H   UNL     1     148.394 170.048 192.969  0.00  0.00    +0.059 HD
ATOM    109  H   UNL     1     149.276 171.621 190.487  0.00  0.00    +0.078 HD
BRANCH 107 110
ATOM    110  N   UNL     1     147.821 172.437 191.740  0.00  0.00    -0.284 N 
ATOM    111  C   UNL     1     146.438 172.409 191.550  0.00  0.00    +0.206 C 
ATOM    112  O   UNL     1     145.745 171.524 191.063  0.00  0.00    -0.279 OA
ATOM    113  H   UNL     1     145.957 173.338 191.899  0.00  0.00    +0.126 HD
BRANCH 110 114
ATOM    114  C   UNL     1     148.404 173.628 192.353  0.00  0.00    +0.007 C 
ATOM    115  H   UNL     1     149.070 174.111 191.629  0.00  0.00    +0.043 HD
ATOM    116  H   UNL     1     148.987 173.382 193.247  0.00  0.00    +0.043 HD
ATOM    117  H   UNL     1     147.603 174.318 192.635  0.00  0.00    +0.043 HD
ENDBRANCH 110 114
ENDBRANCH 107 110
ENDBRANCH 100 106
ENDBRANCH  98 100
BRANCH  98 118
ATOM    118  O   UNL     1     148.313 167.910 192.861  0.00  0.00    -0.461 OA
BRANCH 118 119
ATOM    119  C   UNL     1     148.223 166.968 193.844  0.00  0.00    +0.304 C 
ATOM    120  O   UNL     1     149.163 166.426 194.407  0.00  0.00    -0.251 OA
BRANCH 119 121
ATOM    121  C   UNL     1     146.787 166.649 194.132  0.00  0.00    +0.033 C 
ATOM    122  H   UNL     1     146.226 167.578 194.245  0.00  0.00    +0.034 HD
ATOM    123  H   UNL     1     146.715 166.038 195.035  0.00  0.00    +0.034 HD
ATOM    124  H   UNL     1     146.372 166.069 193.303  0.00  0.00    +0.034 HD
ENDBRANCH 119 121
ENDBRANCH 118 119
ENDBRANCH  98 118
ENDBRANCH  92  98
ENDBRANCH  90  92
BRANCH  90 125
ATOM    125  O   UNL     1     149.544 166.046 188.467  0.00  0.00    -0.459 OA
BRANCH 125 126
ATOM    126  C   UNL     1     149.541 166.544 187.185  0.00  0.00    +0.339 C 
ATOM    127  O   UNL     1     150.555 166.777 186.539  0.00  0.00    -0.248 OA
BRANCH 126 128
ATOM    128  C   UNL     1     148.125 166.854 186.669  0.00  0.00    +0.178 C 
ATOM    129  H   UNL     1     147.878 167.866 187.030  0.00  0.00    +0.074 HD
BRANCH 128 130
ATOM    130  C   UNL     1     148.138 166.878 185.139  0.00  0.00    +0.084 C 
ATOM    131  H   UNL     1     149.077 166.464 184.766  0.00  0.00    +0.059 HD
ATOM    132  H   UNL     1     147.339 166.231 184.759  0.00  0.00    +0.059 HD
BRANCH 130 133
ATOM    133  O   UNL     1     147.949 168.200 184.639  0.00  0.00    -0.380 OA
BRANCH 133 134
ATOM    134  C   UNL     1     147.994 169.165 185.680  0.00  0.00    +0.037 C 
ATOM    135  H   UNL     1     148.659 169.989 185.399  0.00  0.00    +0.052 HD
ATOM    136  H   UNL     1     146.987 169.565 185.826  0.00  0.00    +0.052 HD
ATOM    137  H   UNL     1     148.335 168.716 186.619  0.00  0.00    +0.052 HD
ENDBRANCH 133 134
ENDBRANCH 130 133
ENDBRANCH 128 130
BRANCH 128 138
ATOM    138  O   UNL     1     147.103 165.943 187.080  0.00  0.00    -0.366 OA
BRANCH 138 139
ATOM    139  C   UNL     1     145.811 166.354 186.656  0.00  0.00    +0.038 C 
ATOM    140  H   UNL     1     145.870 166.631 185.599  0.00  0.00    +0.052 HD
ATOM    141  H   UNL     1     145.483 167.231 187.223  0.00  0.00    +0.052 HD
ATOM    142  H   UNL     1     145.084 165.544 186.763  0.00  0.00    +0.052 HD
ENDBRANCH 138 139
ENDBRANCH 128 138
ENDBRANCH 126 128
ENDBRANCH 125 126
ENDBRANCH  90 125
ENDBRANCH  87  90
ENDBRANCH  84  87
ENDBRANCH  78  84
ENDBRANCH  76  78
BRANCH  76 143
ATOM    143  O   UNL     1     155.373 166.534 191.102  0.00  0.00    -0.379 OA
BRANCH 143 144
ATOM    144  C   UNL     1     156.695 166.167 190.724  0.00  0.00    +0.037 C 
ATOM    145  H   UNL     1     156.749 166.162 189.630  0.00  0.00    +0.052 HD
ATOM    146  H   UNL     1     156.965 165.171 191.090  0.00  0.00    +0.052 HD
ATOM    147  H   UNL     1     157.411 166.906 191.087  0.00  0.00    +0.052 HD
ENDBRANCH 143 144
ENDBRANCH  76 143
ENDBRANCH   1  76
TORSDOF 35
ENDMDL
