MODEL 1
REMARK VINA RESULT:      -6.7      0.000      0.000
REMARK  Name = Phalloidin_conf3
REMARK  12 active torsions:
REMARK  status: ('A' for Active; 'I' for Inactive)
REMARK    1  A    between atoms: CB_1  and  CA_2
REMARK    2  A    between atoms: CG_24  and  OD_30
REMARK    3  A    between atoms: CA_34  and  CB_53
REMARK    4  A    between atoms: CA_38  and  CB_52
REMARK    5  A    between atoms: C_42  and  C_46
REMARK    6  A    between atoms: C_46  and  C_47
REMARK    7  A    between atoms: C_47  and  C_48
REMARK    8  A    between atoms: C_47  and  C_49
REMARK    9  A    between atoms: C_47  and  O_51
REMARK   10  A    between atoms: C_49  and  O_50
REMARK   11  A    between atoms: CB_53  and  CG2_54
REMARK   12  A    between atoms: CB_53  and  OG1_55
REMARK                            x       y       z     vdW  Elec       q    Type
REMARK                         _______ _______ _______ _____ _____    ______ ____
ROOT
ATOM      1  CA  ALA A   7     143.584 166.959 190.917  0.00  0.00    +0.097 C 
ATOM      2  C   ALA A   7     143.365 168.450 191.276  0.00  0.00    +0.234 C 
ATOM      3  O   ALA A   7     143.022 168.806 192.404  0.00  0.00    -0.274 OA
ATOM      4  N   UNK A   1     143.682 169.340 190.277  0.00  0.00    -0.302 N 
ATOM      5  C   UNK A   1     143.655 170.796 190.443  0.00  0.00    +0.103 C 
ATOM      6  C   UNK A   1     144.842 171.467 189.730  0.00  0.00    +0.002 C 
ATOM      7  C   UNK A   1     146.196 171.072 190.252  0.00  0.00    -0.006 A 
ATOM      8  C   UNK A   5     146.974 169.984 189.906  0.00  0.00    +0.078 A 
ATOM      9  N   UNK A   5     148.124 170.013 190.645  0.00  0.00    -0.349 N 
ATOM     10  C   UNK A   5     148.127 171.103 191.481  0.00  0.00    +0.048 A 
ATOM     11  C   UNK A   5     149.083 171.525 192.411  0.00  0.00    -0.038 A 
ATOM     12  C   UNK A   5     148.812 172.690 193.135  0.00  0.00    -0.060 A 
ATOM     13  C   UNK A   5     147.630 173.399 192.933  0.00  0.00    -0.061 A 
ATOM     14  C   UNK A   5     146.684 172.965 191.999  0.00  0.00    -0.052 A 
ATOM     15  C   UNK A   5     146.933 171.790 191.256  0.00  0.00    +0.004 A 
ATOM     16  S   UNK A   5     146.733 168.628 188.864  0.00  0.00    -0.105 S 
ATOM     17  C   UNK A   5     146.932 169.319 187.184  0.00  0.00    +0.027 C 
ATOM     18  C   UNK A   5     145.680 169.345 186.278  0.00  0.00    +0.109 C 
ATOM     19  C   UNK A   5     144.486 168.527 186.800  0.00  0.00    +0.237 C 
ATOM     20  O   UNK A   5     143.529 169.101 187.342  0.00  0.00    -0.274 OA
ATOM     21  N   HYP A   6     144.512 167.152 186.734  0.00  0.00    -0.286 N 
ATOM     22  CD  HYP A   6     145.481 166.318 186.045  0.00  0.00    +0.042 C 
ATOM     23  CG  HYP A   6     144.736 165.021 185.739  0.00  0.00    +0.073 C 
ATOM     24  CB  HYP A   6     143.711 164.931 186.866  0.00  0.00    +0.002 C 
ATOM     25  CA  HYP A   6     143.317 166.382 187.110  0.00  0.00    +0.105 C 
ATOM     26  C   HYP A   6     142.857 166.577 188.566  0.00  0.00    +0.234 C 
ATOM     27  O   HYP A   6     141.670 166.497 188.870  0.00  0.00    -0.274 OA
ATOM     28  N   ALA A   7     143.860 166.747 189.493  0.00  0.00    -0.303 N 
ATOM     29  N   UNK A   5     145.182 170.710 186.079  0.00  0.00    -0.302 N 
ATOM     30  C   THR A   4     145.818 171.610 185.257  0.00  0.00    +0.237 C 
ATOM     31  O   THR A   4     146.841 171.303 184.646  0.00  0.00    -0.274 OA
ATOM     32  CA  THR A   4     145.281 173.054 185.329  0.00  0.00    +0.125 C 
ATOM     33  N   THR A   4     143.844 173.115 185.611  0.00  0.00    -0.300 N 
ATOM     34  C   ALA A   3     143.300 174.204 186.273  0.00  0.00    +0.234 C 
ATOM     35  O   ALA A   3     143.998 175.105 186.732  0.00  0.00    -0.274 OA
ATOM     36  CA  ALA A   3     141.763 174.184 186.385  0.00  0.00    +0.097 C 
ATOM     37  N   ALA A   3     141.370 173.164 187.340  0.00  0.00    -0.303 N 
ATOM     38  C   UNK A   2     141.070 171.877 186.967  0.00  0.00    +0.234 C 
ATOM     39  O   UNK A   2     141.232 171.470 185.811  0.00  0.00    -0.274 OA
ATOM     40  C   UNK A   2     140.570 170.961 188.111  0.00  0.00    +0.102 C 
ATOM     41  N   UNK A   2     141.714 170.579 188.942  0.00  0.00    -0.302 N 
ATOM     42  C   UNK A   1     142.374 171.404 189.828  0.00  0.00    +0.234 C 
ATOM     43  O   UNK A   1     142.070 172.587 189.973  0.00  0.00    -0.274 OA
ATOM     44  HA  ALA A   7     142.652 166.437 191.167  0.00  0.00    +0.059 HD
ATOM     45  H   UNK A   1     143.969 168.971 189.379  0.00  0.00    +0.150 HD
ATOM     46  H   UNK A   1     143.664 171.035 191.514  0.00  0.00    +0.060 HD
ATOM     47  H   UNK A   1     144.801 171.264 188.657  0.00  0.00    +0.034 HD
ATOM     48  H   UNK A   1     144.747 172.556 189.822  0.00  0.00    +0.034 HD
ATOM     49  H   UNK A   5     148.852 169.316 190.601  0.00  0.00    +0.166 HD
ATOM     50  H   UNK A   5     150.008 170.979 192.570  0.00  0.00    +0.064 HD
ATOM     51  H   UNK A   5     149.538 173.055 193.859  0.00  0.00    +0.062 HD
ATOM     52  H   UNK A   5     147.439 174.310 193.502  0.00  0.00    +0.062 HD
ATOM     53  H   UNK A   5     145.783 173.549 191.850  0.00  0.00    +0.062 HD
ATOM     54  H   UNK A   5     147.670 168.662 186.708  0.00  0.00    +0.040 HD
ATOM     55  H   UNK A   5     147.409 170.301 187.248  0.00  0.00    +0.040 HD
ATOM     56  H   UNK A   5     145.950 168.979 185.281  0.00  0.00    +0.060 HD
ATOM     57  HD1 HYP A   6     145.841 166.798 185.132  0.00  0.00    +0.049 HD
ATOM     58  HD2 HYP A   6     146.341 166.149 186.701  0.00  0.00    +0.049 HD
ATOM     59  HG  HYP A   6     144.222 165.078 184.770  0.00  0.00    +0.061 HD
ATOM     60  HB1 HYP A   6     142.852 164.309 186.584  0.00  0.00    +0.031 HD
ATOM     61  HB2 HYP A   6     144.153 164.463 187.755  0.00  0.00    +0.031 HD
ATOM     62  HA  HYP A   6     142.505 166.698 186.442  0.00  0.00    +0.060 HD
ATOM     63  H   ALA A   7     144.811 166.846 189.156  0.00  0.00    +0.149 HD
ATOM     64  H   UNK A   5     144.326 170.989 186.556  0.00  0.00    +0.150 HD
ATOM     65  HA  THR A   4     145.801 173.493 186.194  0.00  0.00    +0.062 HD
ATOM     66  H   THR A   4     143.204 172.394 185.268  0.00  0.00    +0.150 HD
ATOM     67  HA  ALA A   3     141.362 173.925 185.395  0.00  0.00    +0.059 HD
ATOM     68  H   ALA A   3     141.460 173.365 188.343  0.00  0.00    +0.149 HD
ATOM     69  H   UNK A   2     140.257 170.022 187.642  0.00  0.00    +0.060 HD
ATOM     70  H   UNK A   2     142.032 169.617 188.874  0.00  0.00    +0.150 HD
ENDROOT
BRANCH   1  71
ATOM     71  CB  ALA A   7     144.729 166.398 191.757  0.00  0.00    -0.038 C 
ATOM     72  HB1 ALA A   7     144.541 165.355 192.033  0.00  0.00    +0.025 HD
ATOM     73  HB2 ALA A   7     144.853 166.971 192.684  0.00  0.00    +0.025 HD
ATOM     74  HB3 ALA A   7     145.677 166.428 191.207  0.00  0.00    +0.025 HD
ENDBRANCH   1  71
BRANCH  36  75
ATOM     75  CB  ALA A   3     141.206 175.543 186.791  0.00  0.00    -0.038 C 
ATOM     76  HB1 ALA A   3     141.039 175.584 187.873  0.00  0.00    +0.025 HD
ATOM     77  HB2 ALA A   3     141.891 176.358 186.535  0.00  0.00    +0.025 HD
ATOM     78  HB3 ALA A   3     140.250 175.731 186.288  0.00  0.00    +0.025 HD
ENDBRANCH  36  75
BRANCH  40  79
ATOM     79  C   UNK A   2     139.386 171.514 188.925  0.00  0.00    +0.005 C 
ATOM     80  H   UNK A   2     139.761 172.330 189.556  0.00  0.00    +0.032 HD
ATOM     81  H   UNK A   2     138.650 171.965 188.245  0.00  0.00    +0.032 HD
BRANCH  79  82
ATOM     82  C   UNK A   2     138.650 170.481 189.813  0.00  0.00    +0.088 C 
BRANCH  82  83
ATOM     83  C   UNK A   2     137.274 170.194 189.189  0.00  0.00    -0.034 C 
ATOM     84  H   UNK A   2     137.254 169.183 188.767  0.00  0.00    +0.026 HD
ATOM     85  H   UNK A   2     136.479 170.229 189.947  0.00  0.00    +0.026 HD
ATOM     86  H   UNK A   2     137.021 170.906 188.394  0.00  0.00    +0.026 HD
ENDBRANCH  82  83
BRANCH  82  87
ATOM     87  C   UNK A   2     138.474 170.945 191.275  0.00  0.00    +0.073 C 
ATOM     88  H   UNK A   2     137.550 171.526 191.379  0.00  0.00    +0.059 HD
ATOM     89  H   UNK A   2     138.380 170.090 191.953  0.00  0.00    +0.059 HD
BRANCH  87  90
ATOM     90  O   UNK A   2     139.563 171.751 191.694  0.00  0.00    -0.392 OA
ATOM     91  H   UNK A   2     139.794 171.474 192.597  0.00  0.00    +0.210 HD
ENDBRANCH  87  90
ENDBRANCH  82  87
BRANCH  82  92
ATOM     92  O   UNK A   2     139.393 169.253 189.799  0.00  0.00    -0.387 OA
ATOM     93  H   UNK A   2     140.297 169.446 190.102  0.00  0.00    +0.210 HD
ENDBRANCH  82  92
ENDBRANCH  79  82
ENDBRANCH  40  79
BRANCH  23  94
ATOM     94  OD  HYP A   6     145.589 163.891 185.765  0.00  0.00    -0.390 OA
ATOM     95  HD  HYP A   6     145.275 163.276 186.455  0.00  0.00    +0.210 HD
ENDBRANCH  23  94
BRANCH  32  96
ATOM     96  CB  THR A   4     145.684 173.874 184.079  0.00  0.00    +0.079 C 
ATOM     97  HB  THR A   4     145.403 174.922 184.239  0.00  0.00    +0.061 HD
BRANCH  96  98
ATOM     98  CG2 THR A   4     145.017 173.404 182.786  0.00  0.00    -0.037 C 
ATOM     99 HG21 THR A   4     145.063 174.170 182.003  0.00  0.00    +0.026 HD
ATOM    100 HG22 THR A   4     145.475 172.487 182.401  0.00  0.00    +0.026 HD
ATOM    101 HG23 THR A   4     143.951 173.215 182.962  0.00  0.00    +0.026 HD
ENDBRANCH  96  98
BRANCH  96 102
ATOM    102  OG1 THR A   4     147.102 173.876 183.880  0.00  0.00    -0.390 OA
ATOM    103  HG1 THR A   4     147.377 172.953 183.702  0.00  0.00    +0.210 HD
ENDBRANCH  96 102
ENDBRANCH  32  96
TORSDOF 12
ENDMDL
MODEL 2
REMARK VINA RESULT:      -6.0      3.506      8.075
REMARK  Name = Phalloidin_conf3
REMARK  12 active torsions:
REMARK  status: ('A' for Active; 'I' for Inactive)
REMARK    1  A    between atoms: CB_1  and  CA_2
REMARK    2  A    between atoms: CG_24  and  OD_30
REMARK    3  A    between atoms: CA_34  and  CB_53
REMARK    4  A    between atoms: CA_38  and  CB_52
REMARK    5  A    between atoms: C_42  and  C_46
REMARK    6  A    between atoms: C_46  and  C_47
REMARK    7  A    between atoms: C_47  and  C_48
REMARK    8  A    between atoms: C_47  and  C_49
REMARK    9  A    between atoms: C_47  and  O_51
REMARK   10  A    between atoms: C_49  and  O_50
REMARK   11  A    between atoms: CB_53  and  CG2_54
REMARK   12  A    between atoms: CB_53  and  OG1_55
REMARK                            x       y       z     vdW  Elec       q    Type
REMARK                         _______ _______ _______ _____ _____    ______ ____
ROOT
ATOM      1  CA  ALA A   7     142.722 167.078 192.229  0.00  0.00    +0.097 C 
ATOM      2  C   ALA A   7     143.984 166.215 191.979  0.00  0.00    +0.234 C 
ATOM      3  O   ALA A   7     144.535 165.587 192.884  0.00  0.00    -0.274 OA
ATOM      4  N   UNK A   1     144.373 166.123 190.663  0.00  0.00    -0.302 N 
ATOM      5  C   UNK A   1     145.471 165.272 190.195  0.00  0.00    +0.103 C 
ATOM      6  C   UNK A   1     145.125 164.592 188.858  0.00  0.00    +0.002 C 
ATOM      7  C   UNK A   1     143.945 163.661 188.911  0.00  0.00    -0.006 A 
ATOM      8  C   UNK A   5     142.602 163.956 188.779  0.00  0.00    +0.078 A 
ATOM      9  N   UNK A   5     141.883 162.800 188.911  0.00  0.00    -0.349 N 
ATOM     10  C   UNK A   5     142.725 161.737 189.130  0.00  0.00    +0.048 A 
ATOM     11  C   UNK A   5     142.436 160.383 189.330  0.00  0.00    -0.038 A 
ATOM     12  C   UNK A   5     143.512 159.514 189.535  0.00  0.00    -0.060 A 
ATOM     13  C   UNK A   5     144.822 159.988 189.541  0.00  0.00    -0.061 A 
ATOM     14  C   UNK A   5     145.095 161.344 189.341  0.00  0.00    -0.052 A 
ATOM     15  C   UNK A   5     144.026 162.242 189.132  0.00  0.00    +0.004 A 
ATOM     16  S   UNK A   5     141.716 165.426 188.598  0.00  0.00    -0.105 S 
ATOM     17  C   UNK A   5     142.004 165.907 186.859  0.00  0.00    +0.027 C 
ATOM     18  C   UNK A   5     142.825 167.194 186.609  0.00  0.00    +0.109 C 
ATOM     19  C   UNK A   5     143.056 168.066 187.855  0.00  0.00    +0.237 C 
ATOM     20  O   UNK A   5     144.153 168.042 188.435  0.00  0.00    -0.274 OA
ATOM     21  N   HYP A   6     142.025 168.818 188.371  0.00  0.00    -0.286 N 
ATOM     22  CD  HYP A   6     140.722 169.057 187.776  0.00  0.00    +0.042 C 
ATOM     23  CG  HYP A   6     140.257 170.384 188.371  0.00  0.00    +0.073 C 
ATOM     24  CB  HYP A   6     140.940 170.416 189.735  0.00  0.00    +0.002 C 
ATOM     25  CA  HYP A   6     142.286 169.751 189.478  0.00  0.00    +0.105 C 
ATOM     26  C   HYP A   6     142.813 169.090 190.765  0.00  0.00    +0.234 C 
ATOM     27  O   HYP A   6     143.573 169.693 191.518  0.00  0.00    -0.274 OA
ATOM     28  N   ALA A   7     142.307 167.843 191.048  0.00  0.00    -0.303 N 
ATOM     29  N   UNK A   5     144.154 166.893 186.069  0.00  0.00    -0.302 N 
ATOM     30  C   THR A   4     144.345 166.497 184.766  0.00  0.00    +0.237 C 
ATOM     31  O   THR A   4     143.396 166.379 183.991  0.00  0.00    -0.274 OA
ATOM     32  CA  THR A   4     145.772 166.022 184.429  0.00  0.00    +0.125 C 
ATOM     33  N   THR A   4     146.803 166.718 185.205  0.00  0.00    -0.300 N 
ATOM     34  C   ALA A   3     148.006 166.095 185.501  0.00  0.00    +0.234 C 
ATOM     35  O   ALA A   3     148.219 164.919 185.216  0.00  0.00    -0.274 OA
ATOM     36  CA  ALA A   3     149.035 166.993 186.213  0.00  0.00    +0.097 C 
ATOM     37  N   ALA A   3     148.599 167.226 187.578  0.00  0.00    -0.303 N 
ATOM     38  C   UNK A   2     147.837 168.310 187.937  0.00  0.00    +0.234 C 
ATOM     39  O   UNK A   2     147.370 169.095 187.102  0.00  0.00    -0.274 OA
ATOM     40  C   UNK A   2     147.560 168.446 189.454  0.00  0.00    +0.102 C 
ATOM     41  N   UNK A   2     146.547 167.458 189.837  0.00  0.00    -0.302 N 
ATOM     42  C   UNK A   1     146.752 166.099 189.947  0.00  0.00    +0.234 C 
ATOM     43  O   UNK A   1     147.835 165.576 189.687  0.00  0.00    -0.274 OA
ATOM     44  HA  ALA A   7     142.981 167.788 193.023  0.00  0.00    +0.059 HD
ATOM     45  H   UNK A   1     143.863 166.661 189.973  0.00  0.00    +0.150 HD
ATOM     46  H   UNK A   1     145.694 164.521 190.962  0.00  0.00    +0.060 HD
ATOM     47  H   UNK A   1     144.949 165.346 188.087  0.00  0.00    +0.034 HD
ATOM     48  H   UNK A   1     145.994 164.020 188.511  0.00  0.00    +0.034 HD
ATOM     49  H   UNK A   5     140.877 162.743 188.879  0.00  0.00    +0.166 HD
ATOM     50  H   UNK A   5     141.417 160.007 189.321  0.00  0.00    +0.064 HD
ATOM     51  H   UNK A   5     143.326 158.452 189.682  0.00  0.00    +0.062 HD
ATOM     52  H   UNK A   5     145.650 159.294 189.697  0.00  0.00    +0.062 HD
ATOM     53  H   UNK A   5     146.127 161.679 189.332  0.00  0.00    +0.062 HD
ATOM     54  H   UNK A   5     140.999 166.074 186.455  0.00  0.00    +0.040 HD
ATOM     55  H   UNK A   5     142.407 165.054 186.307  0.00  0.00    +0.040 HD
ATOM     56  H   UNK A   5     142.322 167.797 185.844  0.00  0.00    +0.060 HD
ATOM     57  HD1 HYP A   6     140.785 169.108 186.686  0.00  0.00    +0.049 HD
ATOM     58  HD2 HYP A   6     140.049 168.235 188.039  0.00  0.00    +0.049 HD
ATOM     59  HG  HYP A   6     140.596 171.233 187.762  0.00  0.00    +0.061 HD
ATOM     60  HB1 HYP A   6     141.049 171.442 190.110  0.00  0.00    +0.031 HD
ATOM     61  HB2 HYP A   6     140.342 169.877 190.481  0.00  0.00    +0.031 HD
ATOM     62  HA  HYP A   6     143.033 170.473 189.124  0.00  0.00    +0.060 HD
ATOM     63  H   ALA A   7     141.720 167.395 190.353  0.00  0.00    +0.149 HD
ATOM     64  H   UNK A   5     144.962 167.000 186.680  0.00  0.00    +0.150 HD
ATOM     65  HA  THR A   4     145.787 164.967 184.741  0.00  0.00    +0.062 HD
ATOM     66  H   THR A   4     146.689 167.695 185.485  0.00  0.00    +0.150 HD
ATOM     67  HA  ALA A   3     149.066 167.952 185.675  0.00  0.00    +0.059 HD
ATOM     68  H   ALA A   3     148.736 166.484 188.273  0.00  0.00    +0.149 HD
ATOM     69  H   UNK A   2     147.057 169.409 189.593  0.00  0.00    +0.060 HD
ATOM     70  H   UNK A   2     145.622 167.812 190.060  0.00  0.00    +0.150 HD
ENDROOT
BRANCH   1  71
ATOM     71  CB  ALA A   7     141.578 166.180 192.693  0.00  0.00    -0.038 C 
ATOM     72  HB1 ALA A   7     140.606 166.624 192.453  0.00  0.00    +0.025 HD
ATOM     73  HB2 ALA A   7     141.614 166.027 193.779  0.00  0.00    +0.025 HD
ATOM     74  HB3 ALA A   7     141.621 165.198 192.208  0.00  0.00    +0.025 HD
ENDBRANCH   1  71
BRANCH  36  75
ATOM     75  CB  ALA A   3     150.431 166.384 186.191  0.00  0.00    -0.038 C 
ATOM     76  HB1 ALA A   3     150.463 165.517 185.521  0.00  0.00    +0.025 HD
ATOM     77  HB2 ALA A   3     151.183 167.097 185.839  0.00  0.00    +0.025 HD
ATOM     78  HB3 ALA A   3     150.720 166.052 187.195  0.00  0.00    +0.025 HD
ENDBRANCH  36  75
BRANCH  40  79
ATOM     79  C   UNK A   2     148.807 168.416 190.355  0.00  0.00    +0.005 C 
ATOM     80  H   UNK A   2     149.160 167.378 190.411  0.00  0.00    +0.032 HD
ATOM     81  H   UNK A   2     149.617 168.990 189.882  0.00  0.00    +0.032 HD
BRANCH  79  82
ATOM     82  C   UNK A   2     148.605 168.963 191.789  0.00  0.00    +0.088 C 
BRANCH  82  83
ATOM     83  C   UNK A   2     149.831 169.810 192.166  0.00  0.00    -0.034 C 
ATOM     84  H   UNK A   2     149.704 170.232 193.170  0.00  0.00    +0.026 HD
ATOM     85  H   UNK A   2     150.742 169.197 192.200  0.00  0.00    +0.026 HD
ATOM     86  H   UNK A   2     149.998 170.635 191.464  0.00  0.00    +0.026 HD
ENDBRANCH  82  83
BRANCH  82  87
ATOM     87  C   UNK A   2     148.392 167.854 192.842  0.00  0.00    +0.073 C 
ATOM     88  H   UNK A   2     148.907 166.936 192.535  0.00  0.00    +0.059 HD
ATOM     89  H   UNK A   2     148.820 168.139 193.809  0.00  0.00    +0.059 HD
BRANCH  87  90
ATOM     90  O   UNK A   2     147.015 167.562 193.013  0.00  0.00    -0.392 OA
ATOM     91  H   UNK A   2     146.777 167.817 193.921  0.00  0.00    +0.210 HD
ENDBRANCH  87  90
ENDBRANCH  82  87
BRANCH  82  92
ATOM     92  O   UNK A   2     147.464 169.832 191.791  0.00  0.00    -0.387 OA
ATOM     93  H   UNK A   2     147.718 170.662 192.231  0.00  0.00    +0.210 HD
ENDBRANCH  82  92
ENDBRANCH  79  82
ENDBRANCH  40  79
BRANCH  23  94
ATOM     94  OD  HYP A   6     138.851 170.441 188.529  0.00  0.00    -0.390 OA
ATOM     95  HD  HYP A   6     138.544 171.338 188.301  0.00  0.00    +0.210 HD
ENDBRANCH  23  94
BRANCH  32  96
ATOM     96  CB  THR A   4     146.040 166.060 182.904  0.00  0.00    +0.079 C 
ATOM     97  HB  THR A   4     145.130 166.399 182.395  0.00  0.00    +0.061 HD
BRANCH  96  98
ATOM     98  CG2 THR A   4     146.431 164.707 182.309  0.00  0.00    -0.037 C 
ATOM     99 HG21 THR A   4     145.749 164.404 181.506  0.00  0.00    +0.026 HD
ATOM    100 HG22 THR A   4     147.452 164.715 181.913  0.00  0.00    +0.026 HD
ATOM    101 HG23 THR A   4     146.360 163.926 183.075  0.00  0.00    +0.026 HD
ENDBRANCH  96  98
BRANCH  96 102
ATOM    102  OG1 THR A   4     147.055 167.011 182.567  0.00  0.00    -0.390 OA
ATOM    103  HG1 THR A   4     147.922 166.569 182.675  0.00  0.00    +0.210 HD
ENDBRANCH  96 102
ENDBRANCH  32  96
TORSDOF 12
ENDMDL
MODEL 3
REMARK VINA RESULT:      -5.7      2.164      7.511
REMARK  Name = Phalloidin_conf3
REMARK  12 active torsions:
REMARK  status: ('A' for Active; 'I' for Inactive)
REMARK    1  A    between atoms: CB_1  and  CA_2
REMARK    2  A    between atoms: CG_24  and  OD_30
REMARK    3  A    between atoms: CA_34  and  CB_53
REMARK    4  A    between atoms: CA_38  and  CB_52
REMARK    5  A    between atoms: C_42  and  C_46
REMARK    6  A    between atoms: C_46  and  C_47
REMARK    7  A    between atoms: C_47  and  C_48
REMARK    8  A    between atoms: C_47  and  C_49
REMARK    9  A    between atoms: C_47  and  O_51
REMARK   10  A    between atoms: C_49  and  O_50
REMARK   11  A    between atoms: CB_53  and  CG2_54
REMARK   12  A    between atoms: CB_53  and  OG1_55
REMARK                            x       y       z     vdW  Elec       q    Type
REMARK                         _______ _______ _______ _____ _____    ______ ____
ROOT
ATOM      1  CA  ALA A   7     143.516 174.347 186.482  0.00  0.00    +0.097 C 
ATOM      2  C   ALA A   7     144.876 173.619 186.618  0.00  0.00    +0.234 C 
ATOM      3  O   ALA A   7     145.944 174.177 186.365  0.00  0.00    -0.274 OA
ATOM      4  N   UNK A   1     144.805 172.347 187.138  0.00  0.00    -0.302 N 
ATOM      5  C   UNK A   1     145.978 171.527 187.452  0.00  0.00    +0.103 C 
ATOM      6  C   UNK A   1     145.787 170.749 188.766  0.00  0.00    +0.002 C 
ATOM      7  C   UNK A   1     145.611 171.607 189.988  0.00  0.00    -0.006 A 
ATOM      8  C   UNK A   5     144.455 172.174 190.489  0.00  0.00    +0.078 A 
ATOM      9  N   UNK A   5     144.767 172.889 191.613  0.00  0.00    -0.349 N 
ATOM     10  C   UNK A   5     146.115 172.811 191.869  0.00  0.00    +0.048 A 
ATOM     11  C   UNK A   5     146.874 173.385 192.894  0.00  0.00    -0.038 A 
ATOM     12  C   UNK A   5     148.249 173.131 192.902  0.00  0.00    -0.060 A 
ATOM     13  C   UNK A   5     148.835 172.335 191.920  0.00  0.00    -0.061 A 
ATOM     14  C   UNK A   5     148.063 171.768 190.901  0.00  0.00    -0.052 A 
ATOM     15  C   UNK A   5     146.672 172.011 190.870  0.00  0.00    +0.004 A 
ATOM     16  S   UNK A   5     142.819 172.232 189.941  0.00  0.00    -0.105 S 
ATOM     17  C   UNK A   5     142.171 170.562 190.301  0.00  0.00    +0.027 C 
ATOM     18  C   UNK A   5     141.805 169.670 189.091  0.00  0.00    +0.109 C 
ATOM     19  C   UNK A   5     141.764 170.400 187.738  0.00  0.00    +0.237 C 
ATOM     20  O   UNK A   5     142.707 170.284 186.941  0.00  0.00    -0.274 OA
ATOM     21  N   HYP A   6     140.716 171.242 187.441  0.00  0.00    -0.286 N 
ATOM     22  CD  HYP A   6     139.484 171.419 188.189  0.00  0.00    +0.042 C 
ATOM     23  CG  HYP A   6     138.467 171.909 187.162  0.00  0.00    +0.073 C 
ATOM     24  CB  HYP A   6     139.329 172.648 186.141  0.00  0.00    +0.002 C 
ATOM     25  CA  HYP A   6     140.614 171.831 186.097  0.00  0.00    +0.105 C 
ATOM     26  C   HYP A   6     141.802 172.722 185.692  0.00  0.00    +0.234 C 
ATOM     27  O   HYP A   6     142.153 172.813 184.519  0.00  0.00    -0.274 OA
ATOM     28  N   ALA A   7     142.367 173.463 186.704  0.00  0.00    -0.303 N 
ATOM     29  N   UNK A   5     142.752 168.562 188.929  0.00  0.00    -0.302 N 
ATOM     30  C   THR A   4     142.749 167.467 189.760  0.00  0.00    +0.237 C 
ATOM     31  O   THR A   4     141.942 167.370 190.684  0.00  0.00    -0.274 OA
ATOM     32  CA  THR A   4     143.940 166.505 189.577  0.00  0.00    +0.125 C 
ATOM     33  N   THR A   4     144.421 166.449 188.193  0.00  0.00    -0.300 N 
ATOM     34  C   ALA A   3     145.747 166.155 187.917  0.00  0.00    +0.234 C 
ATOM     35  O   ALA A   3     146.585 166.026 188.807  0.00  0.00    -0.274 OA
ATOM     36  CA  ALA A   3     146.074 166.009 186.419  0.00  0.00    +0.097 C 
ATOM     37  N   ALA A   3     146.035 167.319 185.795  0.00  0.00    -0.303 N 
ATOM     38  C   UNK A   2     144.903 167.824 185.202  0.00  0.00    +0.234 C 
ATOM     39  O   UNK A   2     143.811 167.248 185.267  0.00  0.00    -0.274 OA
ATOM     40  C   UNK A   2     145.084 169.191 184.498  0.00  0.00    +0.102 C 
ATOM     41  N   UNK A   2     145.160 170.239 185.518  0.00  0.00    -0.302 N 
ATOM     42  C   UNK A   1     146.234 170.473 186.352  0.00  0.00    +0.234 C 
ATOM     43  O   UNK A   1     147.243 169.770 186.333  0.00  0.00    -0.274 OA
ATOM     44  HA  ALA A   7     143.464 174.723 185.453  0.00  0.00    +0.059 HD
ATOM     45  H   UNK A   1     143.890 171.959 187.333  0.00  0.00    +0.150 HD
ATOM     46  H   UNK A   1     146.862 172.175 187.514  0.00  0.00    +0.060 HD
ATOM     47  H   UNK A   1     144.933 170.071 188.680  0.00  0.00    +0.034 HD
ATOM     48  H   UNK A   1     146.655 170.100 188.929  0.00  0.00    +0.034 HD
ATOM     49  H   UNK A   5     144.105 173.421 192.157  0.00  0.00    +0.166 HD
ATOM     50  H   UNK A   5     146.422 174.002 193.665  0.00  0.00    +0.064 HD
ATOM     51  H   UNK A   5     148.869 173.551 193.691  0.00  0.00    +0.062 HD
ATOM     52  H   UNK A   5     149.908 172.143 191.946  0.00  0.00    +0.062 HD
ATOM     53  H   UNK A   5     148.545 171.138 190.162  0.00  0.00    +0.062 HD
ATOM     54  H   UNK A   5     141.249 170.746 190.865  0.00  0.00    +0.040 HD
ATOM     55  H   UNK A   5     142.844 170.051 190.994  0.00  0.00    +0.040 HD
ATOM     56  H   UNK A   5     140.829 169.204 189.271  0.00  0.00    +0.060 HD
ATOM     57  HD1 HYP A   6     139.163 170.483 188.654  0.00  0.00    +0.049 HD
ATOM     58  HD2 HYP A   6     139.648 172.154 188.984  0.00  0.00    +0.049 HD
ATOM     59  HG  HYP A   6     137.953 171.067 186.678  0.00  0.00    +0.061 HD
ATOM     60  HB1 HYP A   6     138.838 172.703 185.161  0.00  0.00    +0.031 HD
ATOM     61  HB2 HYP A   6     139.502 173.684 186.458  0.00  0.00    +0.031 HD
ATOM     62  HA  HYP A   6     140.540 171.000 185.384  0.00  0.00    +0.060 HD
ATOM     63  H   ALA A   7     142.051 173.297 187.653  0.00  0.00    +0.149 HD
ATOM     64  H   UNK A   5     143.420 168.603 188.161  0.00  0.00    +0.150 HD
ATOM     65  HA  THR A   4     144.743 166.950 190.183  0.00  0.00    +0.062 HD
ATOM     66  H   THR A   4     143.780 166.557 187.403  0.00  0.00    +0.150 HD
ATOM     67  HA  ALA A   3     145.297 165.373 185.970  0.00  0.00    +0.059 HD
ATOM     68  H   ALA A   3     146.831 167.953 185.927  0.00  0.00    +0.149 HD
ATOM     69  H   UNK A   2     144.144 169.397 183.975  0.00  0.00    +0.060 HD
ATOM     70  H   UNK A   2     144.360 170.859 185.602  0.00  0.00    +0.150 HD
ENDROOT
BRANCH   1  71
ATOM     71  CB  ALA A   7     143.468 175.517 187.461  0.00  0.00    -0.038 C 
ATOM     72  HB1 ALA A   7     142.627 175.415 188.155  0.00  0.00    +0.025 HD
ATOM     73  HB2 ALA A   7     143.348 176.469 186.931  0.00  0.00    +0.025 HD
ATOM     74  HB3 ALA A   7     144.384 175.572 188.060  0.00  0.00    +0.025 HD
ENDBRANCH   1  71
BRANCH  36  75
ATOM     75  CB  ALA A   3     147.428 165.347 186.195  0.00  0.00    -0.038 C 
ATOM     76  HB1 ALA A   3     148.209 166.104 186.061  0.00  0.00    +0.025 HD
ATOM     77  HB2 ALA A   3     147.721 164.721 187.043  0.00  0.00    +0.025 HD
ATOM     78  HB3 ALA A   3     147.403 164.717 185.298  0.00  0.00    +0.025 HD
ENDBRANCH  36  75
BRANCH  40  79
ATOM     79  C   UNK A   2     146.232 169.256 183.475  0.00  0.00    +0.005 C 
ATOM     80  H   UNK A   2     147.180 169.212 184.027  0.00  0.00    +0.032 HD
ATOM     81  H   UNK A   2     146.207 168.362 182.835  0.00  0.00    +0.032 HD
BRANCH  79  82
ATOM     82  C   UNK A   2     146.235 170.503 182.557  0.00  0.00    +0.088 C 
BRANCH  82  83
ATOM     83  C   UNK A   2     146.474 170.043 181.110  0.00  0.00    -0.034 C 
ATOM     84  H   UNK A   2     147.278 169.299 181.078  0.00  0.00    +0.026 HD
ATOM     85  H   UNK A   2     145.582 169.553 180.696  0.00  0.00    +0.026 HD
ATOM     86  H   UNK A   2     146.746 170.874 180.449  0.00  0.00    +0.026 HD
ENDBRANCH  82  83
BRANCH  82  87
ATOM     87  C   UNK A   2     147.295 171.553 182.954  0.00  0.00    +0.073 C 
ATOM     88  H   UNK A   2     148.153 171.063 183.430  0.00  0.00    +0.059 HD
ATOM     89  H   UNK A   2     147.686 172.074 182.074  0.00  0.00    +0.059 HD
BRANCH  87  90
ATOM     90  O   UNK A   2     146.763 172.506 183.859  0.00  0.00    -0.392 OA
ATOM     91  H   UNK A   2     147.502 173.065 184.155  0.00  0.00    +0.210 HD
ENDBRANCH  87  90
ENDBRANCH  82  87
BRANCH  82  92
ATOM     92  O   UNK A   2     144.936 171.111 182.607  0.00  0.00    -0.387 OA
ATOM     93  H   UNK A   2     144.687 171.211 183.542  0.00  0.00    +0.210 HD
ENDBRANCH  82  92
ENDBRANCH  79  82
ENDBRANCH  40  79
BRANCH  23  94
ATOM     94  OD  HYP A   6     137.515 172.792 187.725  0.00  0.00    -0.390 OA
ATOM     95  HD  HYP A   6     137.871 173.701 187.693  0.00  0.00    +0.210 HD
ENDBRANCH  23  94
BRANCH  32  96
ATOM     96  CB  THR A   4     143.636 165.104 190.164  0.00  0.00    +0.079 C 
ATOM     97  HB  THR A   4     144.581 164.566 190.299  0.00  0.00    +0.061 HD
BRANCH  96  98
ATOM     98  CG2 THR A   4     142.730 164.244 189.282  0.00  0.00    -0.037 C 
ATOM     99 HG21 THR A   4     142.138 164.855 188.590  0.00  0.00    +0.026 HD
ATOM    100 HG22 THR A   4     143.301 163.514 188.700  0.00  0.00    +0.026 HD
ATOM    101 HG23 THR A   4     142.004 163.705 189.903  0.00  0.00    +0.026 HD
ENDBRANCH  96  98
BRANCH  96 102
ATOM    102  OG1 THR A   4     143.046 165.191 191.466  0.00  0.00    -0.390 OA
ATOM    103  HG1 THR A   4     143.515 165.898 191.956  0.00  0.00    +0.210 HD
ENDBRANCH  96 102
ENDBRANCH  32  96
TORSDOF 12
ENDMDL
MODEL 4
REMARK VINA RESULT:      -5.6      2.305      7.917
REMARK  Name = Phalloidin_conf3
REMARK  12 active torsions:
REMARK  status: ('A' for Active; 'I' for Inactive)
REMARK    1  A    between atoms: CB_1  and  CA_2
REMARK    2  A    between atoms: CG_24  and  OD_30
REMARK    3  A    between atoms: CA_34  and  CB_53
REMARK    4  A    between atoms: CA_38  and  CB_52
REMARK    5  A    between atoms: C_42  and  C_46
REMARK    6  A    between atoms: C_46  and  C_47
REMARK    7  A    between atoms: C_47  and  C_48
REMARK    8  A    between atoms: C_47  and  C_49
REMARK    9  A    between atoms: C_47  and  O_51
REMARK   10  A    between atoms: C_49  and  O_50
REMARK   11  A    between atoms: CB_53  and  CG2_54
REMARK   12  A    between atoms: CB_53  and  OG1_55
REMARK                            x       y       z     vdW  Elec       q    Type
REMARK                         _______ _______ _______ _____ _____    ______ ____
ROOT
ATOM      1  CA  ALA A   7     143.591 174.359 186.652  0.00  0.00    +0.097 C 
ATOM      2  C   ALA A   7     143.233 173.706 188.010  0.00  0.00    +0.234 C 
ATOM      3  O   ALA A   7     142.707 174.344 188.923  0.00  0.00    -0.274 OA
ATOM      4  N   UNK A   1     143.450 172.350 188.077  0.00  0.00    -0.302 N 
ATOM      5  C   UNK A   1     143.078 171.519 189.226  0.00  0.00    +0.103 C 
ATOM      6  C   UNK A   1     142.505 170.163 188.779  0.00  0.00    +0.002 C 
ATOM      7  C   UNK A   1     141.240 170.246 187.971  0.00  0.00    -0.006 A 
ATOM      8  C   UNK A   5     141.091 170.434 186.611  0.00  0.00    +0.078 A 
ATOM      9  N   UNK A   5     139.756 170.462 186.314  0.00  0.00    -0.349 N 
ATOM     10  C   UNK A   5     139.010 170.297 187.456  0.00  0.00    +0.048 A 
ATOM     11  C   UNK A   5     137.623 170.269 187.631  0.00  0.00    -0.038 A 
ATOM     12  C   UNK A   5     137.137 170.086 188.930  0.00  0.00    -0.060 A 
ATOM     13  C   UNK A   5     138.010 169.941 190.005  0.00  0.00    -0.061 A 
ATOM     14  C   UNK A   5     139.396 169.972 189.814  0.00  0.00    -0.052 A 
ATOM     15  C   UNK A   5     139.910 170.156 188.512  0.00  0.00    +0.004 A 
ATOM     16  S   UNK A   5     142.198 170.726 185.318  0.00  0.00    -0.105 S 
ATOM     17  C   UNK A   5     142.974 169.098 185.022  0.00  0.00    +0.027 C 
ATOM     18  C   UNK A   5     144.480 168.965 185.345  0.00  0.00    +0.109 C 
ATOM     19  C   UNK A   5     145.206 170.295 185.609  0.00  0.00    +0.237 C 
ATOM     20  O   UNK A   5     145.468 170.640 186.771  0.00  0.00    -0.274 OA
ATOM     21  N   HYP A   6     145.500 171.138 184.562  0.00  0.00    -0.286 N 
ATOM     22  CD  HYP A   6     145.375 170.861 183.141  0.00  0.00    +0.042 C 
ATOM     23  CG  HYP A   6     146.383 171.790 182.470  0.00  0.00    +0.073 C 
ATOM     24  CB  HYP A   6     146.457 172.978 183.425  0.00  0.00    +0.002 C 
ATOM     25  CA  HYP A   6     146.312 172.341 184.801  0.00  0.00    +0.105 C 
ATOM     26  C   HYP A   6     145.697 173.344 185.795  0.00  0.00    +0.234 C 
ATOM     27  O   HYP A   6     146.410 174.047 186.505  0.00  0.00    -0.274 OA
ATOM     28  N   ALA A   7     144.326 173.459 185.758  0.00  0.00    -0.303 N 
ATOM     29  N   UNK A   5     144.708 168.133 186.532  0.00  0.00    -0.302 N 
ATOM     30  C   THR A   4     144.573 166.765 186.506  0.00  0.00    +0.237 C 
ATOM     31  O   THR A   4     144.254 166.175 185.474  0.00  0.00    -0.274 OA
ATOM     32  CA  THR A   4     144.644 166.075 187.883  0.00  0.00    +0.125 C 
ATOM     33  N   THR A   4     145.530 166.767 188.823  0.00  0.00    -0.300 N 
ATOM     34  C   ALA A   3     145.305 166.698 190.189  0.00  0.00    +0.234 C 
ATOM     35  O   ALA A   3     144.313 166.145 190.659  0.00  0.00    -0.274 OA
ATOM     36  CA  ALA A   3     146.389 167.369 191.053  0.00  0.00    +0.097 C 
ATOM     37  N   ALA A   3     146.282 168.810 190.914  0.00  0.00    -0.303 N 
ATOM     38  C   UNK A   2     146.997 169.519 189.981  0.00  0.00    +0.234 C 
ATOM     39  O   UNK A   2     147.687 168.965 189.118  0.00  0.00    -0.274 OA
ATOM     40  C   UNK A   2     146.831 171.057 190.054  0.00  0.00    +0.102 C 
ATOM     41  N   UNK A   2     145.523 171.416 189.499  0.00  0.00    -0.302 N 
ATOM     42  C   UNK A   1     144.305 171.207 190.110  0.00  0.00    +0.234 C 
ATOM     43  O   UNK A   1     144.208 170.646 191.201  0.00  0.00    -0.274 OA
ATOM     44  HA  ALA A   7     144.235 175.218 186.879  0.00  0.00    +0.059 HD
ATOM     45  H   UNK A   1     143.876 171.892 187.280  0.00  0.00    +0.150 HD
ATOM     46  H   UNK A   1     142.347 172.062 189.838  0.00  0.00    +0.060 HD
ATOM     47  H   UNK A   1     143.255 169.607 188.209  0.00  0.00    +0.034 HD
ATOM     48  H   UNK A   1     142.303 169.549 189.665  0.00  0.00    +0.034 HD
ATOM     49  H   UNK A   5     139.376 170.610 185.392  0.00  0.00    +0.166 HD
ATOM     50  H   UNK A   5     136.937 170.377 186.796  0.00  0.00    +0.064 HD
ATOM     51  H   UNK A   5     136.064 170.047 189.103  0.00  0.00    +0.062 HD
ATOM     52  H   UNK A   5     137.613 169.793 191.011  0.00  0.00    +0.062 HD
ATOM     53  H   UNK A   5     140.049 169.837 190.669  0.00  0.00    +0.062 HD
ATOM     54  H   UNK A   5     142.852 168.934 183.945  0.00  0.00    +0.040 HD
ATOM     55  H   UNK A   5     142.382 168.319 185.509  0.00  0.00    +0.040 HD
ATOM     56  H   UNK A   5     144.980 168.446 184.518  0.00  0.00    +0.060 HD
ATOM     57  HD1 HYP A   6     145.588 169.813 182.920  0.00  0.00    +0.049 HD
ATOM     58  HD2 HYP A   6     144.349 171.075 182.823  0.00  0.00    +0.049 HD
ATOM     59  HG  HYP A   6     147.370 171.313 182.389  0.00  0.00    +0.061 HD
ATOM     60  HB1 HYP A   6     147.402 173.526 183.318  0.00  0.00    +0.031 HD
ATOM     61  HB2 HYP A   6     145.657 173.698 183.210  0.00  0.00    +0.031 HD
ATOM     62  HA  HYP A   6     147.279 172.006 185.196  0.00  0.00    +0.060 HD
ATOM     63  H   ALA A   7     143.807 172.811 185.176  0.00  0.00    +0.149 HD
ATOM     64  H   UNK A   5     144.993 168.589 187.397  0.00  0.00    +0.150 HD
ATOM     65  HA  THR A   4     143.620 166.158 188.280  0.00  0.00    +0.062 HD
ATOM     66  H   THR A   4     146.369 167.256 188.501  0.00  0.00    +0.150 HD
ATOM     67  HA  ALA A   3     147.367 167.042 190.672  0.00  0.00    +0.059 HD
ATOM     68  H   ALA A   3     145.541 169.302 191.427  0.00  0.00    +0.149 HD
ATOM     69  H   UNK A   2     147.547 171.481 189.343  0.00  0.00    +0.060 HD
ATOM     70  H   UNK A   2     145.519 171.877 188.594  0.00  0.00    +0.150 HD
ENDROOT
BRANCH   1  71
ATOM     71  CB  ALA A   7     142.313 174.840 185.969  0.00  0.00    -0.038 C 
ATOM     72  HB1 ALA A   7     142.363 174.684 184.886  0.00  0.00    +0.025 HD
ATOM     73  HB2 ALA A   7     142.152 175.910 186.144  0.00  0.00    +0.025 HD
ATOM     74  HB3 ALA A   7     141.436 174.297 186.339  0.00  0.00    +0.025 HD
ENDBRANCH   1  71
BRANCH  36  75
ATOM     75  CB  ALA A   3     146.281 166.961 192.517  0.00  0.00    -0.038 C 
ATOM     76  HB1 ALA A   3     145.245 167.041 192.864  0.00  0.00    +0.025 HD
ATOM     77  HB2 ALA A   3     146.599 165.925 192.677  0.00  0.00    +0.025 HD
ATOM     78  HB3 ALA A   3     146.904 167.610 193.143  0.00  0.00    +0.025 HD
ENDBRANCH  36  75
BRANCH  40  79
ATOM     79  C   UNK A   2     147.093 171.681 191.437  0.00  0.00    +0.005 C 
ATOM     80  H   UNK A   2     146.231 172.308 191.694  0.00  0.00    +0.032 HD
ATOM     81  H   UNK A   2     147.134 170.887 192.197  0.00  0.00    +0.032 HD
BRANCH  79  82
ATOM     82  C   UNK A   2     148.388 172.522 191.551  0.00  0.00    +0.088 C 
BRANCH  82  83
ATOM     83  C   UNK A   2     149.539 171.593 191.967  0.00  0.00    -0.034 C 
ATOM     84  H   UNK A   2     149.188 170.863 192.706  0.00  0.00    +0.026 HD
ATOM     85  H   UNK A   2     149.911 171.013 191.111  0.00  0.00    +0.026 HD
ATOM     86  H   UNK A   2     150.382 172.143 192.400  0.00  0.00    +0.026 HD
ENDBRANCH  82  83
BRANCH  82  87
ATOM     87  C   UNK A   2     148.271 173.691 192.553  0.00  0.00    +0.073 C 
ATOM     88  H   UNK A   2     148.812 173.453 193.477  0.00  0.00    +0.059 HD
ATOM     89  H   UNK A   2     148.729 174.602 192.154  0.00  0.00    +0.059 HD
BRANCH  87  90
ATOM     90  O   UNK A   2     146.918 173.957 192.881  0.00  0.00    -0.392 OA
ATOM     91  H   UNK A   2     146.859 174.001 193.850  0.00  0.00    +0.210 HD
ENDBRANCH  87  90
ENDBRANCH  82  87
BRANCH  82  92
ATOM     92  O   UNK A   2     148.707 173.050 190.255  0.00  0.00    -0.387 OA
ATOM     93  H   UNK A   2     147.896 173.433 189.878  0.00  0.00    +0.210 HD
ENDBRANCH  82  92
ENDBRANCH  79  82
ENDBRANCH  40  79
BRANCH  23  94
ATOM     94  OD  HYP A   6     145.952 172.219 181.191  0.00  0.00    -0.390 OA
ATOM     95  HD  HYP A   6     146.091 173.183 181.120  0.00  0.00    +0.210 HD
ENDBRANCH  23  94
BRANCH  32  96
ATOM     96  CB  THR A   4     144.969 164.567 187.748  0.00  0.00    +0.079 C 
ATOM     97  HB  THR A   4     144.878 164.097 188.734  0.00  0.00    +0.061 HD
BRANCH  96  98
ATOM     98  CG2 THR A   4     146.377 164.280 187.224  0.00  0.00    -0.037 C 
ATOM     99 HG21 THR A   4     146.539 164.722 186.233  0.00  0.00    +0.026 HD
ATOM    100 HG22 THR A   4     147.150 164.656 187.902  0.00  0.00    +0.026 HD
ATOM    101 HG23 THR A   4     146.517 163.200 187.098  0.00  0.00    +0.026 HD
ENDBRANCH  96  98
BRANCH  96 102
ATOM    102  OG1 THR A   4     144.028 163.894 186.905  0.00  0.00    -0.390 OA
ATOM    103  HG1 THR A   4     143.505 164.579 186.440  0.00  0.00    +0.210 HD
ENDBRANCH  96 102
ENDBRANCH  32  96
TORSDOF 12
ENDMDL
MODEL 5
REMARK VINA RESULT:      -5.5      1.578      2.028
REMARK  Name = Phalloidin_conf3
REMARK  12 active torsions:
REMARK  status: ('A' for Active; 'I' for Inactive)
REMARK    1  A    between atoms: CB_1  and  CA_2
REMARK    2  A    between atoms: CG_24  and  OD_30
REMARK    3  A    between atoms: CA_34  and  CB_53
REMARK    4  A    between atoms: CA_38  and  CB_52
REMARK    5  A    between atoms: C_42  and  C_46
REMARK    6  A    between atoms: C_46  and  C_47
REMARK    7  A    between atoms: C_47  and  C_48
REMARK    8  A    between atoms: C_47  and  C_49
REMARK    9  A    between atoms: C_47  and  O_51
REMARK   10  A    between atoms: C_49  and  O_50
REMARK   11  A    between atoms: CB_53  and  CG2_54
REMARK   12  A    between atoms: CB_53  and  OG1_55
REMARK                            x       y       z     vdW  Elec       q    Type
REMARK                         _______ _______ _______ _____ _____    ______ ____
ROOT
ATOM      1  CA  ALA A   7     144.085 166.836 190.267  0.00  0.00    +0.097 C 
ATOM      2  C   ALA A   7     143.799 168.101 191.113  0.00  0.00    +0.234 C 
ATOM      3  O   ALA A   7     143.750 168.066 192.343  0.00  0.00    -0.274 OA
ATOM      4  N   UNK A   1     143.709 169.271 190.397  0.00  0.00    -0.302 N 
ATOM      5  C   UNK A   1     143.554 170.593 191.009  0.00  0.00    +0.103 C 
ATOM      6  C   UNK A   1     144.400 171.654 190.282  0.00  0.00    +0.002 C 
ATOM      7  C   UNK A   1     145.883 171.413 190.319  0.00  0.00    -0.006 A 
ATOM      8  C   UNK A   5     146.656 170.635 189.479  0.00  0.00    +0.078 A 
ATOM      9  N   UNK A   5     147.957 170.694 189.897  0.00  0.00    -0.349 N 
ATOM     10  C   UNK A   5     148.066 171.498 191.006  0.00  0.00    +0.048 A 
ATOM     11  C   UNK A   5     149.188 171.837 191.768  0.00  0.00    -0.038 A 
ATOM     12  C   UNK A   5     148.996 172.688 192.861  0.00  0.00    -0.060 A 
ATOM     13  C   UNK A   5     147.729 173.174 193.174  0.00  0.00    -0.061 A 
ATOM     14  C   UNK A   5     146.616 172.826 192.403  0.00  0.00    -0.052 A 
ATOM     15  C   UNK A   5     146.784 171.967 191.294  0.00  0.00    +0.004 A 
ATOM     16  S   UNK A   5     146.294 169.588 188.154  0.00  0.00    -0.105 S 
ATOM     17  C   UNK A   5     145.922 170.729 186.776  0.00  0.00    +0.027 C 
ATOM     18  C   UNK A   5     144.470 170.746 186.246  0.00  0.00    +0.109 C 
ATOM     19  C   UNK A   5     143.582 169.596 186.753  0.00  0.00    +0.237 C 
ATOM     20  O   UNK A   5     142.757 169.801 187.656  0.00  0.00    -0.274 OA
ATOM     21  N   HYP A   6     143.754 168.324 186.258  0.00  0.00    -0.286 N 
ATOM     22  CD  HYP A   6     144.581 167.916 185.135  0.00  0.00    +0.042 C 
ATOM     23  CG  HYP A   6     143.942 166.627 184.625  0.00  0.00    +0.073 C 
ATOM     24  CB  HYP A   6     143.298 166.035 185.876  0.00  0.00    +0.002 C 
ATOM     25  CA  HYP A   6     142.817 167.258 186.645  0.00  0.00    +0.105 C 
ATOM     26  C   HYP A   6     142.771 166.960 188.155  0.00  0.00    +0.234 C 
ATOM     27  O   HYP A   6     141.738 166.567 188.690  0.00  0.00    -0.274 OA
ATOM     28  N   ALA A   7     143.968 167.072 188.824  0.00  0.00    -0.303 N 
ATOM     29  N   UNK A   5     143.776 171.986 186.605  0.00  0.00    -0.302 N 
ATOM     30  C   THR A   4     144.037 173.182 185.979  0.00  0.00    +0.237 C 
ATOM     31  O   THR A   4     144.874 173.260 185.079  0.00  0.00    -0.274 OA
ATOM     32  CA  THR A   4     143.373 174.416 186.622  0.00  0.00    +0.125 C 
ATOM     33  N   THR A   4     142.079 174.111 187.239  0.00  0.00    -0.300 N 
ATOM     34  C   ALA A   3     141.618 174.852 188.316  0.00  0.00    +0.234 C 
ATOM     35  O   ALA A   3     142.304 175.718 188.854  0.00  0.00    -0.274 OA
ATOM     36  CA  ALA A   3     140.191 174.496 188.776  0.00  0.00    +0.097 C 
ATOM     37  N   ALA A   3     140.212 173.200 189.430  0.00  0.00    -0.303 N 
ATOM     38  C   UNK A   2     139.977 172.027 188.756  0.00  0.00    +0.234 C 
ATOM     39  O   UNK A   2     139.850 171.985 187.527  0.00  0.00    -0.274 OA
ATOM     40  C   UNK A   2     139.937 170.757 189.641  0.00  0.00    +0.102 C 
ATOM     41  N   UNK A   2     141.307 170.403 190.018  0.00  0.00    -0.302 N 
ATOM     42  C   UNK A   1     142.088 171.075 190.935  0.00  0.00    +0.234 C 
ATOM     43  O   UNK A   1     141.697 172.091 191.509  0.00  0.00    -0.274 OA
ATOM     44  HA  ALA A   7     143.333 166.091 190.554  0.00  0.00    +0.059 HD
ATOM     45  H   UNK A   1     143.771 169.221 189.387  0.00  0.00    +0.150 HD
ATOM     46  H   UNK A   1     143.839 170.534 192.067  0.00  0.00    +0.060 HD
ATOM     47  H   UNK A   1     144.079 171.741 189.241  0.00  0.00    +0.034 HD
ATOM     48  H   UNK A   1     144.204 172.637 190.728  0.00  0.00    +0.034 HD
ATOM     49  H   UNK A   5     148.721 170.195 189.468  0.00  0.00    +0.166 HD
ATOM     50  H   UNK A   5     150.179 171.465 191.526  0.00  0.00    +0.064 HD
ATOM     51  H   UNK A   5     149.848 172.983 193.470  0.00  0.00    +0.062 HD
ATOM     52  H   UNK A   5     147.599 173.842 194.027  0.00  0.00    +0.062 HD
ATOM     53  H   UNK A   5     145.646 173.236 192.661  0.00  0.00    +0.062 HD
ATOM     54  H   UNK A   5     146.567 170.385 185.959  0.00  0.00    +0.040 HD
ATOM     55  H   UNK A   5     146.275 171.733 187.028  0.00  0.00    +0.040 HD
ATOM     56  H   UNK A   5     144.488 170.722 185.150  0.00  0.00    +0.060 HD
ATOM     57  HD1 HYP A   6     144.605 168.684 184.359  0.00  0.00    +0.049 HD
ATOM     58  HD2 HYP A   6     145.605 167.752 185.483  0.00  0.00    +0.049 HD
ATOM     59  HG  HYP A   6     143.170 166.837 183.871  0.00  0.00    +0.061 HD
ATOM     60  HB1 HYP A   6     142.476 165.352 185.625  0.00  0.00    +0.031 HD
ATOM     61  HB2 HYP A   6     144.028 165.443 186.444  0.00  0.00    +0.031 HD
ATOM     62  HA  HYP A   6     141.817 167.572 186.320  0.00  0.00    +0.060 HD
ATOM     63  H   ALA A   7     144.764 167.446 188.321  0.00  0.00    +0.149 HD
ATOM     64  H   UNK A   5     143.063 171.951 187.333  0.00  0.00    +0.150 HD
ATOM     65  HA  THR A   4     144.061 174.702 187.432  0.00  0.00    +0.062 HD
ATOM     66  H   THR A   4     141.460 173.396 186.850  0.00  0.00    +0.150 HD
ATOM     67  HA  ALA A   3     139.559 174.437 187.878  0.00  0.00    +0.059 HD
ATOM     68  H   ALA A   3     140.559 173.139 190.394  0.00  0.00    +0.149 HD
ATOM     69  H   UNK A   2     139.619 169.935 188.991  0.00  0.00    +0.060 HD
ATOM     70  H   UNK A   2     141.706 169.578 189.580  0.00  0.00    +0.150 HD
ENDROOT
BRANCH   1  71
ATOM     71  CB  ALA A   7     145.481 166.311 190.595  0.00  0.00    -0.038 C 
ATOM     72  HB1 ALA A   7     145.475 165.732 191.524  0.00  0.00    +0.025 HD
ATOM     73  HB2 ALA A   7     146.191 167.137 190.722  0.00  0.00    +0.025 HD
ATOM     74  HB3 ALA A   7     145.856 165.656 189.800  0.00  0.00    +0.025 HD
ENDBRANCH   1  71
BRANCH  36  75
ATOM     75  CB  ALA A   3     139.613 175.557 189.704  0.00  0.00    -0.038 C 
ATOM     76  HB1 ALA A   3     139.062 176.310 189.131  0.00  0.00    +0.025 HD
ATOM     77  HB2 ALA A   3     138.917 175.127 190.432  0.00  0.00    +0.025 HD
ATOM     78  HB3 ALA A   3     140.414 176.062 190.255  0.00  0.00    +0.025 HD
ENDBRANCH  36  75
BRANCH  40  79
ATOM     79  C   UNK A   2     138.976 170.823 190.842  0.00  0.00    +0.005 C 
ATOM     80  H   UNK A   2     139.380 170.181 191.635  0.00  0.00    +0.032 HD
ATOM     81  H   UNK A   2     138.966 171.845 191.250  0.00  0.00    +0.032 HD
BRANCH  79  82
ATOM     82  C   UNK A   2     137.514 170.410 190.548  0.00  0.00    +0.088 C 
BRANCH  82  83
ATOM     83  C   UNK A   2     137.424 169.941 189.087  0.00  0.00    -0.034 C 
ATOM     84  H   UNK A   2     136.464 169.441 188.909  0.00  0.00    +0.026 HD
ATOM     85  H   UNK A   2     137.463 170.792 188.392  0.00  0.00    +0.026 HD
ATOM     86  H   UNK A   2     138.230 169.246 188.823  0.00  0.00    +0.026 HD
ENDBRANCH  82  83
BRANCH  82  87
ATOM     87  C   UNK A   2     136.495 171.544 190.796  0.00  0.00    +0.073 C 
ATOM     88  H   UNK A   2     135.647 171.449 190.107  0.00  0.00    +0.059 HD
ATOM     89  H   UNK A   2     136.079 171.488 191.807  0.00  0.00    +0.059 HD
BRANCH  87  90
ATOM     90  O   UNK A   2     137.087 172.819 190.607  0.00  0.00    -0.392 OA
ATOM     91  H   UNK A   2     136.404 173.484 190.802  0.00  0.00    +0.210 HD
ENDBRANCH  87  90
ENDBRANCH  82  87
BRANCH  82  92
ATOM     92  O   UNK A   2     137.177 169.291 191.380  0.00  0.00    -0.387 OA
ATOM     93  H   UNK A   2     136.693 169.627 192.154  0.00  0.00    +0.210 HD
ENDBRANCH  82  92
ENDBRANCH  79  82
ENDBRANCH  40  79
BRANCH  23  94
ATOM     94  OD  HYP A   6     144.896 165.725 184.096  0.00  0.00    -0.390 OA
ATOM     95  HD  HYP A   6     145.727 166.208 183.928  0.00  0.00    +0.210 HD
ENDBRANCH  23  94
BRANCH  32  96
ATOM     96  CB  THR A   4     143.302 175.605 185.632  0.00  0.00    +0.079 C 
ATOM     97  HB  THR A   4     143.778 175.308 184.690  0.00  0.00    +0.061 HD
BRANCH  96  98
ATOM     98  CG2 THR A   4     144.000 176.871 186.129  0.00  0.00    -0.037 C 
ATOM     99 HG21 THR A   4     144.338 177.501 185.299  0.00  0.00    +0.026 HD
ATOM    100 HG22 THR A   4     143.349 177.468 186.776  0.00  0.00    +0.026 HD
ATOM    101 HG23 THR A   4     144.903 176.604 186.692  0.00  0.00    +0.026 HD
ENDBRANCH  96  98
BRANCH  96 102
ATOM    102  OG1 THR A   4     141.950 175.937 185.298  0.00  0.00    -0.390 OA
ATOM    103  HG1 THR A   4     141.960 176.815 184.863  0.00  0.00    +0.210 HD
ENDBRANCH  96 102
ENDBRANCH  32  96
TORSDOF 12
ENDMDL
MODEL 6
REMARK VINA RESULT:      -5.5     10.399     14.406
REMARK  Name = Phalloidin_conf3
REMARK  12 active torsions:
REMARK  status: ('A' for Active; 'I' for Inactive)
REMARK    1  A    between atoms: CB_1  and  CA_2
REMARK    2  A    between atoms: CG_24  and  OD_30
REMARK    3  A    between atoms: CA_34  and  CB_53
REMARK    4  A    between atoms: CA_38  and  CB_52
REMARK    5  A    between atoms: C_42  and  C_46
REMARK    6  A    between atoms: C_46  and  C_47
REMARK    7  A    between atoms: C_47  and  C_48
REMARK    8  A    between atoms: C_47  and  C_49
REMARK    9  A    between atoms: C_47  and  O_51
REMARK   10  A    between atoms: C_49  and  O_50
REMARK   11  A    between atoms: CB_53  and  CG2_54
REMARK   12  A    between atoms: CB_53  and  OG1_55
REMARK                            x       y       z     vdW  Elec       q    Type
REMARK                         _______ _______ _______ _____ _____    ______ ____
ROOT
ATOM      1  CA  ALA A   7     158.349 163.220 183.679  0.00  0.00    +0.097 C 
ATOM      2  C   ALA A   7     158.447 164.363 184.721  0.00  0.00    +0.234 C 
ATOM      3  O   ALA A   7     159.511 164.930 184.969  0.00  0.00    -0.274 OA
ATOM      4  N   UNK A   1     157.247 164.759 185.263  0.00  0.00    -0.302 N 
ATOM      5  C   UNK A   1     157.100 165.891 186.181  0.00  0.00    +0.103 C 
ATOM      6  C   UNK A   1     155.826 166.700 185.880  0.00  0.00    +0.002 C 
ATOM      7  C   UNK A   1     155.788 167.335 184.517  0.00  0.00    -0.006 A 
ATOM      8  C   UNK A   5     155.379 166.786 183.317  0.00  0.00    +0.078 A 
ATOM      9  N   UNK A   5     155.532 167.722 182.331  0.00  0.00    -0.349 N 
ATOM     10  C   UNK A   5     156.038 168.887 182.854  0.00  0.00    +0.048 A 
ATOM     11  C   UNK A   5     156.361 170.094 182.224  0.00  0.00    -0.038 A 
ATOM     12  C   UNK A   5     156.870 171.124 183.020  0.00  0.00    -0.060 A 
ATOM     13  C   UNK A   5     157.048 170.948 184.390  0.00  0.00    -0.061 A 
ATOM     14  C   UNK A   5     156.722 169.735 185.005  0.00  0.00    -0.052 A 
ATOM     15  C   UNK A   5     156.207 168.678 184.223  0.00  0.00    +0.004 A 
ATOM     16  S   UNK A   5     154.848 165.213 182.843  0.00  0.00    -0.105 S 
ATOM     17  C   UNK A   5     153.141 165.108 183.486  0.00  0.00    +0.027 C 
ATOM     18  C   UNK A   5     152.874 164.089 184.617  0.00  0.00    +0.109 C 
ATOM     19  C   UNK A   5     154.014 163.087 184.869  0.00  0.00    +0.237 C 
ATOM     20  O   UNK A   5     154.780 163.245 185.831  0.00  0.00    -0.274 OA
ATOM     21  N   HYP A   6     154.232 162.056 183.983  0.00  0.00    -0.286 N 
ATOM     22  CD  HYP A   6     153.386 161.648 182.875  0.00  0.00    +0.042 C 
ATOM     23  CG  HYP A   6     153.706 160.171 182.659  0.00  0.00    +0.073 C 
ATOM     24  CB  HYP A   6     155.155 160.054 183.127  0.00  0.00    +0.002 C 
ATOM     25  CA  HYP A   6     155.234 161.026 184.297  0.00  0.00    +0.105 C 
ATOM     26  C   HYP A   6     156.671 161.554 184.459  0.00  0.00    +0.234 C 
ATOM     27  O   HYP A   6     157.462 161.008 185.224  0.00  0.00    -0.274 OA
ATOM     28  N   ALA A   7     157.022 162.597 183.634  0.00  0.00    -0.303 N 
ATOM     29  N   UNK A   5     152.627 164.754 185.900  0.00  0.00    -0.302 N 
ATOM     30  C   THR A   4     151.443 165.398 186.177  0.00  0.00    +0.237 C 
ATOM     31  O   THR A   4     150.533 165.441 185.350  0.00  0.00    -0.274 OA
ATOM     32  CA  THR A   4     151.435 166.218 187.483  0.00  0.00    +0.125 C 
ATOM     33  N   THR A   4     152.284 165.636 188.527  0.00  0.00    -0.300 N 
ATOM     34  C   ALA A   3     152.871 166.442 189.490  0.00  0.00    +0.234 C 
ATOM     35  O   ALA A   3     152.788 167.668 189.454  0.00  0.00    -0.274 OA
ATOM     36  CA  ALA A   3     153.631 165.677 190.590  0.00  0.00    +0.097 C 
ATOM     37  N   ALA A   3     154.852 165.127 190.030  0.00  0.00    -0.303 N 
ATOM     38  C   UNK A   2     154.921 163.860 189.505  0.00  0.00    +0.234 C 
ATOM     39  O   UNK A   2     153.919 163.148 189.365  0.00  0.00    -0.274 OA
ATOM     40  C   UNK A   2     156.332 163.411 189.052  0.00  0.00    +0.102 C 
ATOM     41  N   UNK A   2     156.654 164.080 187.789  0.00  0.00    -0.302 N 
ATOM     42  C   UNK A   1     156.979 165.412 187.645  0.00  0.00    +0.234 C 
ATOM     43  O   UNK A   1     156.990 166.191 188.597  0.00  0.00    -0.274 OA
ATOM     44  HA  ALA A   7     159.076 162.457 183.982  0.00  0.00    +0.059 HD
ATOM     45  H   UNK A   1     156.411 164.250 185.001  0.00  0.00    +0.150 HD
ATOM     46  H   UNK A   1     157.988 166.531 186.105  0.00  0.00    +0.060 HD
ATOM     47  H   UNK A   1     154.942 166.068 186.003  0.00  0.00    +0.034 HD
ATOM     48  H   UNK A   1     155.719 167.495 186.628  0.00  0.00    +0.034 HD
ATOM     49  H   UNK A   5     155.328 167.567 181.356  0.00  0.00    +0.166 HD
ATOM     50  H   UNK A   5     156.219 170.239 181.157  0.00  0.00    +0.064 HD
ATOM     51  H   UNK A   5     157.120 172.081 182.566  0.00  0.00    +0.062 HD
ATOM     52  H   UNK A   5     157.441 171.765 184.996  0.00  0.00    +0.062 HD
ATOM     53  H   UNK A   5     156.854 169.635 186.077  0.00  0.00    +0.062 HD
ATOM     54  H   UNK A   5     152.545 164.802 182.619  0.00  0.00    +0.040 HD
ATOM     55  H   UNK A   5     152.789 166.109 183.749  0.00  0.00    +0.040 HD
ATOM     56  H   UNK A   5     151.958 163.532 184.389  0.00  0.00    +0.060 HD
ATOM     57  HD1 HYP A   6     152.329 161.798 183.105  0.00  0.00    +0.049 HD
ATOM     58  HD2 HYP A   6     153.631 162.250 181.994  0.00  0.00    +0.049 HD
ATOM     59  HG  HYP A   6     153.061 159.530 183.277  0.00  0.00    +0.061 HD
ATOM     60  HB1 HYP A   6     155.403 159.026 183.422  0.00  0.00    +0.031 HD
ATOM     61  HB2 HYP A   6     155.846 160.317 182.316  0.00  0.00    +0.031 HD
ATOM     62  HA  HYP A   6     154.927 160.551 185.237  0.00  0.00    +0.060 HD
ATOM     63  H   ALA A   7     156.299 163.021 183.064  0.00  0.00    +0.149 HD
ATOM     64  H   UNK A   5     153.353 164.720 186.613  0.00  0.00    +0.150 HD
ATOM     65  HA  THR A   4     151.882 167.183 187.200  0.00  0.00    +0.062 HD
ATOM     66  H   THR A   4     152.406 164.624 188.610  0.00  0.00    +0.150 HD
ATOM     67  HA  ALA A   3     152.985 164.852 190.927  0.00  0.00    +0.059 HD
ATOM     68  H   ALA A   3     155.653 165.751 189.884  0.00  0.00    +0.149 HD
ATOM     69  H   UNK A   2     156.249 162.354 188.780  0.00  0.00    +0.060 HD
ATOM     70  H   UNK A   2     156.659 163.504 186.952  0.00  0.00    +0.150 HD
ENDROOT
BRANCH   1  71
ATOM     71  CB  ALA A   7     158.715 163.761 182.299  0.00  0.00    -0.038 C 
ATOM     72  HB1 ALA A   7     159.073 164.794 182.362  0.00  0.00    +0.025 HD
ATOM     73  HB2 ALA A   7     157.847 163.750 181.629  0.00  0.00    +0.025 HD
ATOM     74  HB3 ALA A   7     159.511 163.164 181.837  0.00  0.00    +0.025 HD
ENDBRANCH   1  71
BRANCH  36  75
ATOM     75  CB  ALA A   3     153.942 166.565 191.788  0.00  0.00    -0.038 C 
ATOM     76  HB1 ALA A   3     153.632 167.598 191.593  0.00  0.00    +0.025 HD
ATOM     77  HB2 ALA A   3     153.418 166.232 192.690  0.00  0.00    +0.025 HD
ATOM     78  HB3 ALA A   3     155.017 166.563 191.998  0.00  0.00    +0.025 HD
ENDBRANCH  36  75
BRANCH  40  79
ATOM     79  C   UNK A   2     157.439 163.554 190.113  0.00  0.00    +0.005 C 
ATOM     80  H   UNK A   2     157.826 164.579 190.062  0.00  0.00    +0.032 HD
ATOM     81  H   UNK A   2     157.003 163.439 191.116  0.00  0.00    +0.032 HD
BRANCH  79  82
ATOM     82  C   UNK A   2     158.616 162.557 189.983  0.00  0.00    +0.088 C 
BRANCH  82  83
ATOM     83  C   UNK A   2     159.452 162.618 191.271  0.00  0.00    -0.034 C 
ATOM     84  H   UNK A   2     159.428 163.631 191.689  0.00  0.00    +0.026 HD
ATOM     85  H   UNK A   2     159.041 161.954 192.044  0.00  0.00    +0.026 HD
ATOM     86  H   UNK A   2     160.499 162.340 191.101  0.00  0.00    +0.026 HD
ENDBRANCH  82  83
BRANCH  82  87
ATOM     87  C   UNK A   2     159.518 162.830 188.761  0.00  0.00    +0.073 C 
ATOM     88  H   UNK A   2     159.538 163.904 188.537  0.00  0.00    +0.059 HD
ATOM     89  H   UNK A   2     160.554 162.537 188.959  0.00  0.00    +0.059 HD
BRANCH  87  90
ATOM     90  O   UNK A   2     159.053 162.141 187.612  0.00  0.00    -0.392 OA
ATOM     91  H   UNK A   2     158.929 162.803 186.910  0.00  0.00    +0.210 HD
ENDBRANCH  87  90
ENDBRANCH  82  87
BRANCH  82  92
ATOM     92  O   UNK A   2     158.082 161.229 189.880  0.00  0.00    -0.387 OA
ATOM     93  H   UNK A   2     157.194 161.230 190.279  0.00  0.00    +0.210 HD
ENDBRANCH  82  92
ENDBRANCH  79  82
ENDBRANCH  40  79
BRANCH  23  94
ATOM     94  OD  HYP A   6     153.601 159.789 181.300  0.00  0.00    -0.390 OA
ATOM     95  HD  HYP A   6     153.022 160.425 180.839  0.00  0.00    +0.210 HD
ENDBRANCH  23  94
BRANCH  32  96
ATOM     96  CB  THR A   4     149.992 166.499 187.969  0.00  0.00    +0.079 C 
ATOM     97  HB  THR A   4     150.036 167.165 188.838  0.00  0.00    +0.061 HD
BRANCH  96  98
ATOM     98  CG2 THR A   4     149.220 165.244 188.381  0.00  0.00    -0.037 C 
ATOM     99 HG21 THR A   4     149.313 164.447 187.634  0.00  0.00    +0.026 HD
ATOM    100 HG22 THR A   4     149.557 164.857 189.347  0.00  0.00    +0.026 HD
ATOM    101 HG23 THR A   4     148.149 165.469 188.449  0.00  0.00    +0.026 HD
ENDBRANCH  96  98
BRANCH  96 102
ATOM    102  OG1 THR A   4     149.225 167.195 186.981  0.00  0.00    -0.390 OA
ATOM    103  HG1 THR A   4     148.325 166.809 186.979  0.00  0.00    +0.210 HD
ENDBRANCH  96 102
ENDBRANCH  32  96
TORSDOF 12
ENDMDL
MODEL 7
REMARK VINA RESULT:      -5.5      3.655      7.598
REMARK  Name = Phalloidin_conf3
REMARK  12 active torsions:
REMARK  status: ('A' for Active; 'I' for Inactive)
REMARK    1  A    between atoms: CB_1  and  CA_2
REMARK    2  A    between atoms: CG_24  and  OD_30
REMARK    3  A    between atoms: CA_34  and  CB_53
REMARK    4  A    between atoms: CA_38  and  CB_52
REMARK    5  A    between atoms: C_42  and  C_46
REMARK    6  A    between atoms: C_46  and  C_47
REMARK    7  A    between atoms: C_47  and  C_48
REMARK    8  A    between atoms: C_47  and  C_49
REMARK    9  A    between atoms: C_47  and  O_51
REMARK   10  A    between atoms: C_49  and  O_50
REMARK   11  A    between atoms: CB_53  and  CG2_54
REMARK   12  A    between atoms: CB_53  and  OG1_55
REMARK                            x       y       z     vdW  Elec       q    Type
REMARK                         _______ _______ _______ _____ _____    ______ ____
ROOT
ATOM      1  CA  ALA A   7     142.897 167.765 191.446  0.00  0.00    +0.097 C 
ATOM      2  C   ALA A   7     142.869 167.707 189.898  0.00  0.00    +0.234 C 
ATOM      3  O   ALA A   7     141.871 168.025 189.251  0.00  0.00    -0.274 OA
ATOM      4  N   UNK A   1     144.066 167.376 189.308  0.00  0.00    -0.302 N 
ATOM      5  C   UNK A   1     144.287 167.372 187.859  0.00  0.00    +0.103 C 
ATOM      6  C   UNK A   1     145.674 167.935 187.499  0.00  0.00    +0.002 C 
ATOM      7  C   UNK A   1     145.894 169.369 187.892  0.00  0.00    -0.006 A 
ATOM      8  C   UNK A   5     146.318 169.880 189.104  0.00  0.00    +0.078 A 
ATOM      9  N   UNK A   5     146.361 171.245 189.014  0.00  0.00    -0.349 N 
ATOM     10  C   UNK A   5     145.970 171.653 187.762  0.00  0.00    +0.048 A 
ATOM     11  C   UNK A   5     145.853 172.941 187.229  0.00  0.00    -0.038 A 
ATOM     12  C   UNK A   5     145.423 173.057 185.904  0.00  0.00    -0.060 A 
ATOM     13  C   UNK A   5     145.121 171.926 185.149  0.00  0.00    -0.061 A 
ATOM     14  C   UNK A   5     145.242 170.644 185.696  0.00  0.00    -0.052 A 
ATOM     15  C   UNK A   5     145.674 170.501 187.033  0.00  0.00    +0.004 A 
ATOM     16  S   UNK A   5     146.677 169.173 190.637  0.00  0.00    -0.105 S 
ATOM     17  C   UNK A   5     148.303 168.379 190.390  0.00  0.00    +0.027 C 
ATOM     18  C   UNK A   5     148.352 166.835 190.455  0.00  0.00    +0.109 C 
ATOM     19  C   UNK A   5     147.077 166.169 191.002  0.00  0.00    +0.237 C 
ATOM     20  O   UNK A   5     146.269 165.642 190.223  0.00  0.00    -0.274 OA
ATOM     21  N   HYP A   6     146.796 166.223 192.349  0.00  0.00    -0.286 N 
ATOM     22  CD  HYP A   6     147.663 166.692 193.415  0.00  0.00    +0.042 C 
ATOM     23  CG  HYP A   6     147.174 165.967 194.667  0.00  0.00    +0.073 C 
ATOM     24  CB  HYP A   6     145.691 165.739 194.383  0.00  0.00    +0.002 C 
ATOM     25  CA  HYP A   6     145.650 165.472 192.883  0.00  0.00    +0.105 C 
ATOM     26  C   HYP A   6     144.284 165.883 192.303  0.00  0.00    +0.234 C 
ATOM     27  O   HYP A   6     143.375 165.066 192.188  0.00  0.00    -0.274 OA
ATOM     28  N   ALA A   7     144.133 167.221 192.018  0.00  0.00    -0.303 N 
ATOM     29  N   UNK A   5     148.586 166.243 189.134  0.00  0.00    -0.302 N 
ATOM     30  C   THR A   4     149.818 166.274 188.524  0.00  0.00    +0.237 C 
ATOM     31  O   THR A   4     150.786 166.804 189.069  0.00  0.00    -0.274 OA
ATOM     32  CA  THR A   4     149.834 165.795 187.059  0.00  0.00    +0.125 C 
ATOM     33  N   THR A   4     148.842 164.750 186.789  0.00  0.00    -0.300 N 
ATOM     34  C   ALA A   3     148.293 164.607 185.524  0.00  0.00    +0.234 C 
ATOM     35  O   ALA A   3     148.535 165.397 184.615  0.00  0.00    -0.274 OA
ATOM     36  CA  ALA A   3     147.361 163.391 185.363  0.00  0.00    +0.097 C 
ATOM     37  N   ALA A   3     146.125 163.641 186.082  0.00  0.00    -0.303 N 
ATOM     38  C   UNK A   2     145.933 163.250 187.385  0.00  0.00    +0.234 C 
ATOM     39  O   UNK A   2     146.843 162.767 188.069  0.00  0.00    -0.274 OA
ATOM     40  C   UNK A   2     144.514 163.509 187.947  0.00  0.00    +0.102 C 
ATOM     41  N   UNK A   2     144.376 164.939 188.232  0.00  0.00    -0.302 N 
ATOM     42  C   UNK A   1     144.236 165.936 187.290  0.00  0.00    +0.234 C 
ATOM     43  O   UNK A   1     144.254 165.704 186.082  0.00  0.00    -0.274 OA
ATOM     44  HA  ALA A   7     142.058 167.153 191.797  0.00  0.00    +0.059 HD
ATOM     45  H   UNK A   1     144.847 167.138 189.907  0.00  0.00    +0.150 HD
ATOM     46  H   UNK A   1     143.497 167.958 187.374  0.00  0.00    +0.060 HD
ATOM     47  H   UNK A   1     146.458 167.318 187.947  0.00  0.00    +0.034 HD
ATOM     48  H   UNK A   1     145.825 167.852 186.416  0.00  0.00    +0.034 HD
ATOM     49  H   UNK A   5     146.616 171.861 189.770  0.00  0.00    +0.166 HD
ATOM     50  H   UNK A   5     146.091 173.826 187.811  0.00  0.00    +0.064 HD
ATOM     51  H   UNK A   5     145.331 174.042 185.451  0.00  0.00    +0.062 HD
ATOM     52  H   UNK A   5     144.792 172.035 184.114  0.00  0.00    +0.062 HD
ATOM     53  H   UNK A   5     145.018 169.783 185.077  0.00  0.00    +0.062 HD
ATOM     54  H   UNK A   5     148.919 168.763 191.212  0.00  0.00    +0.040 HD
ATOM     55  H   UNK A   5     148.761 168.762 189.474  0.00  0.00    +0.040 HD
ATOM     56  H   UNK A   5     149.204 166.528 191.074  0.00  0.00    +0.060 HD
ATOM     57  HD1 HYP A   6     148.711 166.464 193.206  0.00  0.00    +0.049 HD
ATOM     58  HD2 HYP A   6     147.564 167.778 193.509  0.00  0.00    +0.049 HD
ATOM     59  HG  HYP A   6     147.683 165.002 194.792  0.00  0.00    +0.061 HD
ATOM     60  HB1 HYP A   6     145.292 164.899 194.965  0.00  0.00    +0.031 HD
ATOM     61  HB2 HYP A   6     145.102 166.620 194.668  0.00  0.00    +0.031 HD
ATOM     62  HA  HYP A   6     145.822 164.412 192.657  0.00  0.00    +0.060 HD
ATOM     63  H   ALA A   7     144.945 167.822 192.098  0.00  0.00    +0.149 HD
ATOM     64  H   UNK A   5     147.810 165.779 188.666  0.00  0.00    +0.150 HD
ATOM     65  HA  THR A   4     149.537 166.683 186.480  0.00  0.00    +0.062 HD
ATOM     66  H   THR A   4     148.585 164.064 187.503  0.00  0.00    +0.150 HD
ATOM     67  HA  ALA A   3     147.869 162.523 185.810  0.00  0.00    +0.059 HD
ATOM     68  H   ALA A   3     145.423 164.259 185.659  0.00  0.00    +0.149 HD
ATOM     69  H   UNK A   2     144.481 163.037 188.935  0.00  0.00    +0.060 HD
ATOM     70  H   UNK A   2     144.360 165.214 189.210  0.00  0.00    +0.150 HD
ENDROOT
BRANCH   1  71
ATOM     71  CB  ALA A   7     142.707 169.210 191.902  0.00  0.00    -0.038 C 
ATOM     72  HB1 ALA A   7     143.107 169.361 192.910  0.00  0.00    +0.025 HD
ATOM     73  HB2 ALA A   7     141.644 169.479 191.922  0.00  0.00    +0.025 HD
ATOM     74  HB3 ALA A   7     143.224 169.909 191.234  0.00  0.00    +0.025 HD
ENDBRANCH   1  71
BRANCH  36  75
ATOM     75  CB  ALA A   3     147.078 163.083 183.899  0.00  0.00    -0.038 C 
ATOM     76  HB1 ALA A   3     146.383 162.241 183.809  0.00  0.00    +0.025 HD
ATOM     77  HB2 ALA A   3     146.626 163.936 183.382  0.00  0.00    +0.025 HD
ATOM     78  HB3 ALA A   3     148.005 162.820 183.376  0.00  0.00    +0.025 HD
ENDBRANCH  36  75
BRANCH  40  79
ATOM     79  C   UNK A   2     143.359 162.944 187.101  0.00  0.00    +0.005 C 
ATOM     80  H   UNK A   2     143.052 163.720 186.388  0.00  0.00    +0.032 HD
ATOM     81  H   UNK A   2     143.723 162.099 186.498  0.00  0.00    +0.032 HD
BRANCH  79  82
ATOM     82  C   UNK A   2     142.122 162.467 187.899  0.00  0.00    +0.088 C 
BRANCH  82  83
ATOM     83  C   UNK A   2     141.049 163.566 187.840  0.00  0.00    -0.034 C 
ATOM     84  H   UNK A   2     141.066 164.059 186.861  0.00  0.00    +0.026 HD
ATOM     85  H   UNK A   2     140.040 163.144 187.956  0.00  0.00    +0.026 HD
ATOM     86  H   UNK A   2     141.192 164.330 188.613  0.00  0.00    +0.026 HD
ENDBRANCH  82  83
BRANCH  82  87
ATOM     87  C   UNK A   2     142.438 162.124 189.371  0.00  0.00    +0.073 C 
ATOM     88  H   UNK A   2     141.742 161.361 189.740  0.00  0.00    +0.059 HD
ATOM     89  H   UNK A   2     143.442 161.700 189.472  0.00  0.00    +0.059 HD
BRANCH  87  90
ATOM     90  O   UNK A   2     142.332 163.269 190.202  0.00  0.00    -0.392 OA
ATOM     91  H   UNK A   2     143.221 163.657 190.270  0.00  0.00    +0.210 HD
ENDBRANCH  87  90
ENDBRANCH  82  87
BRANCH  82  92
ATOM     92  O   UNK A   2     141.582 161.304 187.255  0.00  0.00    -0.387 OA
ATOM     93  H   UNK A   2     142.118 160.537 187.522  0.00  0.00    +0.210 HD
ENDBRANCH  82  92
ENDBRANCH  79  82
ENDBRANCH  40  79
BRANCH  23  94
ATOM     94  OD  HYP A   6     147.331 166.747 195.837  0.00  0.00    -0.390 OA
ATOM     95  HD  HYP A   6     146.780 166.365 196.547  0.00  0.00    +0.210 HD
ENDBRANCH  23  94
BRANCH  32  96
ATOM     96  CB  THR A   4     151.261 165.400 186.604  0.00  0.00    +0.079 C 
ATOM     97  HB  THR A   4     151.247 165.206 185.526  0.00  0.00    +0.061 HD
BRANCH  96  98
ATOM     98  CG2 THR A   4     151.811 164.152 187.296  0.00  0.00    -0.037 C 
ATOM     99 HG21 THR A   4     152.461 163.572 186.631  0.00  0.00    +0.026 HD
ATOM    100 HG22 THR A   4     152.374 164.402 188.201  0.00  0.00    +0.026 HD
ATOM    101 HG23 THR A   4     150.986 163.483 187.571  0.00  0.00    +0.026 HD
ENDBRANCH  96  98
BRANCH  96 102
ATOM    102  OG1 THR A   4     152.194 166.469 186.796  0.00  0.00    -0.390 OA
ATOM    103  HG1 THR A   4     152.421 166.496 187.749  0.00  0.00    +0.210 HD
ENDBRANCH  96 102
ENDBRANCH  32  96
TORSDOF 12
ENDMDL
MODEL 8
REMARK VINA RESULT:      -5.4      2.576      7.540
REMARK  Name = Phalloidin_conf3
REMARK  12 active torsions:
REMARK  status: ('A' for Active; 'I' for Inactive)
REMARK    1  A    between atoms: CB_1  and  CA_2
REMARK    2  A    between atoms: CG_24  and  OD_30
REMARK    3  A    between atoms: CA_34  and  CB_53
REMARK    4  A    between atoms: CA_38  and  CB_52
REMARK    5  A    between atoms: C_42  and  C_46
REMARK    6  A    between atoms: C_46  and  C_47
REMARK    7  A    between atoms: C_47  and  C_48
REMARK    8  A    between atoms: C_47  and  C_49
REMARK    9  A    between atoms: C_47  and  O_51
REMARK   10  A    between atoms: C_49  and  O_50
REMARK   11  A    between atoms: CB_53  and  CG2_54
REMARK   12  A    between atoms: CB_53  and  OG1_55
REMARK                            x       y       z     vdW  Elec       q    Type
REMARK                         _______ _______ _______ _____ _____    ______ ____
ROOT
ATOM      1  CA  ALA A   7     140.337 170.955 186.979  0.00  0.00    +0.097 C 
ATOM      2  C   ALA A   7     141.402 170.174 186.169  0.00  0.00    +0.234 C 
ATOM      3  O   ALA A   7     141.221 169.850 184.995  0.00  0.00    -0.274 OA
ATOM      4  N   UNK A   1     142.592 169.966 186.825  0.00  0.00    -0.302 N 
ATOM      5  C   UNK A   1     143.768 169.349 186.206  0.00  0.00    +0.103 C 
ATOM      6  C   UNK A   1     145.068 170.050 186.640  0.00  0.00    +0.002 C 
ATOM      7  C   UNK A   1     145.169 171.496 186.240  0.00  0.00    -0.006 A 
ATOM      8  C   UNK A   5     144.685 172.612 186.896  0.00  0.00    +0.078 A 
ATOM      9  N   UNK A   5     144.994 173.722 186.159  0.00  0.00    -0.349 N 
ATOM     10  C   UNK A   5     145.674 173.365 185.020  0.00  0.00    +0.048 A 
ATOM     11  C   UNK A   5     146.174 174.158 183.982  0.00  0.00    -0.038 A 
ATOM     12  C   UNK A   5     146.832 173.511 182.932  0.00  0.00    -0.060 A 
ATOM     13  C   UNK A   5     146.979 172.125 182.926  0.00  0.00    -0.061 A 
ATOM     14  C   UNK A   5     146.473 171.346 183.971  0.00  0.00    -0.052 A 
ATOM     15  C   UNK A   5     145.803 171.976 185.043  0.00  0.00    +0.004 A 
ATOM     16  S   UNK A   5     143.738 172.842 188.320  0.00  0.00    -0.105 S 
ATOM     17  C   UNK A   5     144.908 172.530 189.688  0.00  0.00    +0.027 C 
ATOM     18  C   UNK A   5     144.651 171.285 190.567  0.00  0.00    +0.109 C 
ATOM     19  C   UNK A   5     143.281 170.618 190.361  0.00  0.00    +0.237 C 
ATOM     20  O   UNK A   5     143.190 169.580 189.688  0.00  0.00    -0.274 OA
ATOM     21  N   HYP A   6     142.144 171.212 190.860  0.00  0.00    -0.286 N 
ATOM     22  CD  HYP A   6     142.062 172.352 191.755  0.00  0.00    +0.042 C 
ATOM     23  CG  HYP A   6     140.725 172.191 192.475  0.00  0.00    +0.073 C 
ATOM     24  CB  HYP A   6     139.868 171.441 191.460  0.00  0.00    +0.002 C 
ATOM     25  CA  HYP A   6     140.856 170.505 190.777  0.00  0.00    +0.105 C 
ATOM     26  C   HYP A   6     140.390 170.183 189.345  0.00  0.00    +0.234 C 
ATOM     27  O   HYP A   6     139.715 169.185 189.110  0.00  0.00    -0.274 OA
ATOM     28  N   ALA A   7     140.698 171.124 188.390  0.00  0.00    -0.303 N 
ATOM     29  N   UNK A   5     145.653 170.240 190.333  0.00  0.00    -0.302 N 
ATOM     30  C   THR A   4     146.939 170.335 190.812  0.00  0.00    +0.237 C 
ATOM     31  O   THR A   4     147.305 171.312 191.465  0.00  0.00    -0.274 OA
ATOM     32  CA  THR A   4     147.909 169.254 190.297  0.00  0.00    +0.125 C 
ATOM     33  N   THR A   4     147.251 167.969 190.044  0.00  0.00    -0.300 N 
ATOM     34  C   ALA A   3     147.743 167.100 189.083  0.00  0.00    +0.234 C 
ATOM     35  O   ALA A   3     148.678 167.404 188.345  0.00  0.00    -0.274 OA
ATOM     36  CA  ALA A   3     147.022 165.739 189.019  0.00  0.00    +0.097 C 
ATOM     37  N   ALA A   3     145.701 165.929 188.447  0.00  0.00    -0.303 N 
ATOM     38  C   UNK A   2     144.587 166.156 189.217  0.00  0.00    +0.234 C 
ATOM     39  O   UNK A   2     144.654 166.335 190.439  0.00  0.00    -0.274 OA
ATOM     40  C   UNK A   2     143.251 166.227 188.436  0.00  0.00    +0.102 C 
ATOM     41  N   UNK A   2     143.180 167.516 187.743  0.00  0.00    -0.302 N 
ATOM     42  C   UNK A   1     143.908 167.868 186.625  0.00  0.00    +0.234 C 
ATOM     43  O   UNK A   1     144.737 167.114 186.119  0.00  0.00    -0.274 OA
ATOM     44  HA  ALA A   7     139.413 170.367 186.929  0.00  0.00    +0.059 HD
ATOM     45  H   UNK A   1     142.670 170.273 187.787  0.00  0.00    +0.150 HD
ATOM     46  H   UNK A   1     143.659 169.384 185.115  0.00  0.00    +0.060 HD
ATOM     47  H   UNK A   1     145.194 169.970 187.723  0.00  0.00    +0.034 HD
ATOM     48  H   UNK A   1     145.924 169.518 186.210  0.00  0.00    +0.034 HD
ATOM     49  H   UNK A   5     144.733 174.665 186.405  0.00  0.00    +0.166 HD
ATOM     50  H   UNK A   5     146.067 175.239 183.983  0.00  0.00    +0.064 HD
ATOM     51  H   UNK A   5     147.245 174.096 182.112  0.00  0.00    +0.062 HD
ATOM     52  H   UNK A   5     147.500 171.638 182.101  0.00  0.00    +0.062 HD
ATOM     53  H   UNK A   5     146.620 170.272 183.947  0.00  0.00    +0.062 HD
ATOM     54  H   UNK A   5     144.813 173.413 190.331  0.00  0.00    +0.040 HD
ATOM     55  H   UNK A   5     145.932 172.553 189.304  0.00  0.00    +0.040 HD
ATOM     56  H   UNK A   5     144.753 171.564 191.623  0.00  0.00    +0.060 HD
ATOM     57  HD1 HYP A   6     142.896 172.365 192.461  0.00  0.00    +0.049 HD
ATOM     58  HD2 HYP A   6     142.099 173.275 191.168  0.00  0.00    +0.049 HD
ATOM     59  HG  HYP A   6     140.836 171.590 193.388  0.00  0.00    +0.061 HD
ATOM     60  HB1 HYP A   6     139.048 170.897 191.945  0.00  0.00    +0.031 HD
ATOM     61  HB2 HYP A   6     139.400 172.141 190.756  0.00  0.00    +0.031 HD
ATOM     62  HA  HYP A   6     140.968 169.563 191.329  0.00  0.00    +0.060 HD
ATOM     63  H   ALA A   7     141.297 171.897 188.655  0.00  0.00    +0.149 HD
ATOM     64  H   UNK A   5     145.375 169.409 189.813  0.00  0.00    +0.150 HD
ATOM     65  HA  THR A   4     148.254 169.640 189.325  0.00  0.00    +0.062 HD
ATOM     66  H   THR A   4     146.460 167.655 190.613  0.00  0.00    +0.150 HD
ATOM     67  HA  ALA A   3     146.919 165.370 190.049  0.00  0.00    +0.059 HD
ATOM     68  H   ALA A   3     145.614 166.045 187.431  0.00  0.00    +0.149 HD
ATOM     69  H   UNK A   2     142.456 166.285 189.186  0.00  0.00    +0.060 HD
ATOM     70  H   UNK A   2     142.522 168.199 188.107  0.00  0.00    +0.150 HD
ENDROOT
BRANCH   1  71
ATOM     71  CB  ALA A   7     140.112 172.321 186.334  0.00  0.00    -0.038 C 
ATOM     72  HB1 ALA A   7     139.916 172.223 185.261  0.00  0.00    +0.025 HD
ATOM     73  HB2 ALA A   7     140.993 172.962 186.454  0.00  0.00    +0.025 HD
ATOM     74  HB3 ALA A   7     139.252 172.835 186.781  0.00  0.00    +0.025 HD
ENDBRANCH   1  71
BRANCH  36  75
ATOM     75  CB  ALA A   3     147.813 164.715 188.215  0.00  0.00    -0.038 C 
ATOM     76  HB1 ALA A   3     147.200 163.831 188.007  0.00  0.00    +0.025 HD
ATOM     77  HB2 ALA A   3     148.143 165.118 187.252  0.00  0.00    +0.025 HD
ATOM     78  HB3 ALA A   3     148.701 164.394 188.773  0.00  0.00    +0.025 HD
ENDBRANCH  36  75
BRANCH  40  79
ATOM     79  C   UNK A   2     142.964 165.027 187.516  0.00  0.00    +0.005 C 
ATOM     80  H   UNK A   2     142.293 165.367 186.717  0.00  0.00    +0.032 HD
ATOM     81  H   UNK A   2     143.894 164.710 187.023  0.00  0.00    +0.032 HD
BRANCH  79  82
ATOM     82  C   UNK A   2     142.344 163.791 188.211  0.00  0.00    +0.088 C 
BRANCH  82  83
ATOM     83  C   UNK A   2     143.424 162.704 188.329  0.00  0.00    -0.034 C 
ATOM     84  H   UNK A   2     143.746 162.381 187.332  0.00  0.00    +0.026 HD
ATOM     85  H   UNK A   2     144.321 163.089 188.834  0.00  0.00    +0.026 HD
ATOM     86  H   UNK A   2     143.071 161.825 188.880  0.00  0.00    +0.026 HD
ENDBRANCH  82  83
BRANCH  82  87
ATOM     87  C   UNK A   2     141.113 163.225 187.470  0.00  0.00    +0.073 C 
ATOM     88  H   UNK A   2     140.690 163.986 186.803  0.00  0.00    +0.059 HD
ATOM     89  H   UNK A   2     141.388 162.377 186.835  0.00  0.00    +0.059 HD
BRANCH  87  90
ATOM     90  O   UNK A   2     140.106 162.816 188.380  0.00  0.00    -0.392 OA
ATOM     91  H   UNK A   2     140.412 161.993 188.797  0.00  0.00    +0.210 HD
ENDBRANCH  87  90
ENDBRANCH  82  87
BRANCH  82  92
ATOM     92  O   UNK A   2     141.957 164.160 189.543  0.00  0.00    -0.387 OA
ATOM     93  H   UNK A   2     142.522 163.671 190.166  0.00  0.00    +0.210 HD
ENDBRANCH  82  92
ENDBRANCH  79  82
ENDBRANCH  40  79
BRANCH  23  94
ATOM     94  OD  HYP A   6     140.129 173.436 192.790  0.00  0.00    -0.390 OA
ATOM     95  HD  HYP A   6     140.817 174.129 192.766  0.00  0.00    +0.210 HD
ENDBRANCH  23  94
BRANCH  32  96
ATOM     96  CB  THR A   4     149.152 169.122 191.212  0.00  0.00    +0.079 C 
ATOM     97  HB  THR A   4     149.872 168.447 190.734  0.00  0.00    +0.061 HD
BRANCH  96  98
ATOM     98  CG2 THR A   4     148.844 168.567 192.602  0.00  0.00    -0.037 C 
ATOM     99 HG21 THR A   4     149.533 167.760 192.879  0.00  0.00    +0.026 HD
ATOM    100 HG22 THR A   4     148.891 169.344 193.372  0.00  0.00    +0.026 HD
ATOM    101 HG23 THR A   4     147.841 168.124 192.615  0.00  0.00    +0.026 HD
ENDBRANCH  96  98
BRANCH  96 102
ATOM    102  OG1 THR A   4     149.832 170.373 191.366  0.00  0.00    -0.390 OA
ATOM    103  HG1 THR A   4     149.154 171.080 191.365  0.00  0.00    +0.210 HD
ENDBRANCH  96 102
ENDBRANCH  32  96
TORSDOF 12
ENDMDL
MODEL 9
REMARK VINA RESULT:      -5.4      2.781      6.754
REMARK  Name = Phalloidin_conf3
REMARK  12 active torsions:
REMARK  status: ('A' for Active; 'I' for Inactive)
REMARK    1  A    between atoms: CB_1  and  CA_2
REMARK    2  A    between atoms: CG_24  and  OD_30
REMARK    3  A    between atoms: CA_34  and  CB_53
REMARK    4  A    between atoms: CA_38  and  CB_52
REMARK    5  A    between atoms: C_42  and  C_46
REMARK    6  A    between atoms: C_46  and  C_47
REMARK    7  A    between atoms: C_47  and  C_48
REMARK    8  A    between atoms: C_47  and  C_49
REMARK    9  A    between atoms: C_47  and  O_51
REMARK   10  A    between atoms: C_49  and  O_50
REMARK   11  A    between atoms: CB_53  and  CG2_54
REMARK   12  A    between atoms: CB_53  and  OG1_55
REMARK                            x       y       z     vdW  Elec       q    Type
REMARK                         _______ _______ _______ _____ _____    ______ ____
ROOT
ATOM      1  CA  ALA A   7     143.752 166.874 192.405  0.00  0.00    +0.097 C 
ATOM      2  C   ALA A   7     142.735 166.527 191.289  0.00  0.00    +0.234 C 
ATOM      3  O   ALA A   7     141.714 165.877 191.516  0.00  0.00    -0.274 OA
ATOM      4  N   UNK A   1     143.007 167.084 190.062  0.00  0.00    -0.302 N 
ATOM      5  C   UNK A   1     142.118 166.975 188.901  0.00  0.00    +0.103 C 
ATOM      6  C   UNK A   1     142.055 168.296 188.114  0.00  0.00    +0.002 C 
ATOM      7  C   UNK A   1     141.500 169.463 188.882  0.00  0.00    -0.006 A 
ATOM      8  C   UNK A   5     142.158 170.333 189.731  0.00  0.00    +0.078 A 
ATOM      9  N   UNK A   5     141.253 171.234 190.223  0.00  0.00    -0.349 N 
ATOM     10  C   UNK A   5     140.002 170.978 189.718  0.00  0.00    +0.048 A 
ATOM     11  C   UNK A   5     138.785 171.629 189.949  0.00  0.00    -0.038 A 
ATOM     12  C   UNK A   5     137.654 171.140 189.290  0.00  0.00    -0.060 A 
ATOM     13  C   UNK A   5     137.742 170.042 188.436  0.00  0.00    -0.061 A 
ATOM     14  C   UNK A   5     138.965 169.402 188.216  0.00  0.00    -0.052 A 
ATOM     15  C   UNK A   5     140.123 169.876 188.871  0.00  0.00    +0.004 A 
ATOM     16  S   UNK A   5     143.775 170.424 190.327  0.00  0.00    -0.105 S 
ATOM     17  C   UNK A   5     144.736 171.061 188.910  0.00  0.00    +0.027 C 
ATOM     18  C   UNK A   5     145.772 170.106 188.273  0.00  0.00    +0.109 C 
ATOM     19  C   UNK A   5     146.069 168.836 189.089  0.00  0.00    +0.237 C 
ATOM     20  O   UNK A   5     145.566 167.753 188.757  0.00  0.00    -0.274 OA
ATOM     21  N   HYP A   6     146.834 168.915 190.231  0.00  0.00    -0.286 N 
ATOM     22  CD  HYP A   6     147.592 170.057 190.711  0.00  0.00    +0.042 C 
ATOM     23  CG  HYP A   6     148.703 169.459 191.570  0.00  0.00    +0.073 C 
ATOM     24  CB  HYP A   6     148.085 168.165 192.093  0.00  0.00    +0.002 C 
ATOM     25  CA  HYP A   6     147.227 167.682 190.930  0.00  0.00    +0.105 C 
ATOM     26  C   HYP A   6     146.050 166.833 191.448  0.00  0.00    +0.234 C 
ATOM     27  O   HYP A   6     146.138 165.611 191.523  0.00  0.00    -0.274 OA
ATOM     28  N   ALA A   7     144.957 167.538 191.897  0.00  0.00    -0.303 N 
ATOM     29  N   UNK A   5     145.346 169.649 186.947  0.00  0.00    -0.302 N 
ATOM     30  C   THR A   4     145.389 170.464 185.840  0.00  0.00    +0.237 C 
ATOM     31  O   THR A   4     145.795 171.623 185.918  0.00  0.00    -0.274 OA
ATOM     32  CA  THR A   4     144.710 169.891 184.580  0.00  0.00    +0.125 C 
ATOM     33  N   THR A   4     144.805 168.431 184.494  0.00  0.00    -0.300 N 
ATOM     34  C   ALA A   3     143.831 167.698 183.834  0.00  0.00    +0.234 C 
ATOM     35  O   ALA A   3     142.813 168.220 183.385  0.00  0.00    -0.274 OA
ATOM     36  CA  ALA A   3     144.131 166.191 183.719  0.00  0.00    +0.097 C 
ATOM     37  N   ALA A   3     143.982 165.576 185.025  0.00  0.00    -0.303 N 
ATOM     38  C   UNK A   2     145.032 165.423 185.896  0.00  0.00    +0.234 C 
ATOM     39  O   UNK A   2     146.148 165.908 185.676  0.00  0.00    -0.274 OA
ATOM     40  C   UNK A   2     144.701 164.650 187.197  0.00  0.00    +0.102 C 
ATOM     41  N   UNK A   2     143.938 165.530 188.085  0.00  0.00    -0.302 N 
ATOM     42  C   UNK A   1     142.620 165.899 187.913  0.00  0.00    +0.234 C 
ATOM     43  O   UNK A   1     141.960 165.537 186.941  0.00  0.00    -0.274 OA
ATOM     44  HA  ALA A   7     144.051 165.923 192.862  0.00  0.00    +0.059 HD
ATOM     45  H   UNK A   1     143.861 167.617 189.956  0.00  0.00    +0.150 HD
ATOM     46  H   UNK A   1     141.118 166.683 189.243  0.00  0.00    +0.060 HD
ATOM     47  H   UNK A   1     143.048 168.557 187.737  0.00  0.00    +0.034 HD
ATOM     48  H   UNK A   1     141.436 168.152 187.220  0.00  0.00    +0.034 HD
ATOM     49  H   UNK A   5     141.472 171.963 190.884  0.00  0.00    +0.166 HD
ATOM     50  H   UNK A   5     138.711 172.488 190.609  0.00  0.00    +0.064 HD
ATOM     51  H   UNK A   5     136.692 171.628 189.435  0.00  0.00    +0.062 HD
ATOM     52  H   UNK A   5     136.849 169.678 187.926  0.00  0.00    +0.062 HD
ATOM     53  H   UNK A   5     139.005 168.562 187.531  0.00  0.00    +0.062 HD
ATOM     54  H   UNK A   5     145.285 171.918 189.319  0.00  0.00    +0.040 HD
ATOM     55  H   UNK A   5     144.053 171.476 188.164  0.00  0.00    +0.040 HD
ATOM     56  H   UNK A   5     146.711 170.651 188.112  0.00  0.00    +0.060 HD
ATOM     57  HD1 HYP A   6     147.998 170.642 189.883  0.00  0.00    +0.049 HD
ATOM     58  HD2 HYP A   6     146.931 170.707 191.295  0.00  0.00    +0.049 HD
ATOM     59  HG  HYP A   6     149.592 169.231 190.966  0.00  0.00    +0.061 HD
ATOM     60  HB1 HYP A   6     148.853 167.433 192.374  0.00  0.00    +0.031 HD
ATOM     61  HB2 HYP A   6     147.494 168.356 192.998  0.00  0.00    +0.031 HD
ATOM     62  HA  HYP A   6     147.808 167.078 190.222  0.00  0.00    +0.060 HD
ATOM     63  H   ALA A   7     144.944 168.542 191.758  0.00  0.00    +0.149 HD
ATOM     64  H   UNK A   5     145.023 168.688 186.846  0.00  0.00    +0.150 HD
ATOM     65  HA  THR A   4     143.646 170.142 184.709  0.00  0.00    +0.062 HD
ATOM     66  H   THR A   4     145.619 167.929 184.855  0.00  0.00    +0.150 HD
ATOM     67  HA  ALA A   3     145.174 166.085 183.387  0.00  0.00    +0.059 HD
ATOM     68  H   ALA A   3     143.036 165.381 185.374  0.00  0.00    +0.149 HD
ATOM     69  H   UNK A   2     145.651 164.503 187.720  0.00  0.00    +0.060 HD
ATOM     70  H   UNK A   2     144.417 165.879 188.910  0.00  0.00    +0.150 HD
ENDROOT
BRANCH   1  71
ATOM     71  CB  ALA A   7     143.075 167.757 193.451  0.00  0.00    -0.038 C 
ATOM     72  HB1 ALA A   7     143.576 168.727 193.530  0.00  0.00    +0.025 HD
ATOM     73  HB2 ALA A   7     143.103 167.286 194.440  0.00  0.00    +0.025 HD
ATOM     74  HB3 ALA A   7     142.027 167.947 193.192  0.00  0.00    +0.025 HD
ENDBRANCH   1  71
BRANCH  36  75
ATOM     75  CB  ALA A   3     143.229 165.509 182.698  0.00  0.00    -0.038 C 
ATOM     76  HB1 ALA A   3     143.284 166.022 181.731  0.00  0.00    +0.025 HD
ATOM     77  HB2 ALA A   3     143.517 164.466 182.530  0.00  0.00    +0.025 HD
ATOM     78  HB3 ALA A   3     142.187 165.525 183.036  0.00  0.00    +0.025 HD
ENDBRANCH  36  75
BRANCH  40  79
ATOM     79  C   UNK A   2     144.041 163.274 186.993  0.00  0.00    +0.005 C 
ATOM     80  H   UNK A   2     143.020 163.439 186.626  0.00  0.00    +0.032 HD
ATOM     81  H   UNK A   2     144.569 162.727 186.198  0.00  0.00    +0.032 HD
BRANCH  79  82
ATOM     82  C   UNK A   2     143.992 162.368 188.247  0.00  0.00    +0.088 C 
BRANCH  82  83
ATOM     83  C   UNK A   2     144.439 160.954 187.846  0.00  0.00    -0.034 C 
ATOM     84  H   UNK A   2     144.395 160.283 188.712  0.00  0.00    +0.026 HD
ATOM     85  H   UNK A   2     143.768 160.525 187.088  0.00  0.00    +0.026 HD
ATOM     86  H   UNK A   2     145.460 160.937 187.448  0.00  0.00    +0.026 HD
ENDBRANCH  82  83
BRANCH  82  87
ATOM     87  C   UNK A   2     142.597 162.309 188.905  0.00  0.00    +0.073 C 
ATOM     88  H   UNK A   2     141.817 162.490 188.155  0.00  0.00    +0.059 HD
ATOM     89  H   UNK A   2     142.398 161.317 189.324  0.00  0.00    +0.059 HD
BRANCH  87  90
ATOM     90  O   UNK A   2     142.468 163.280 189.930  0.00  0.00    -0.392 OA
ATOM     91  H   UNK A   2     143.164 163.943 189.787  0.00  0.00    +0.210 HD
ENDBRANCH  87  90
ENDBRANCH  82  87
BRANCH  82  92
ATOM     92  O   UNK A   2     144.939 162.862 189.206  0.00  0.00    -0.387 OA
ATOM     93  H   UNK A   2     144.872 163.833 189.222  0.00  0.00    +0.210 HD
ENDBRANCH  82  92
ENDBRANCH  79  82
ENDBRANCH  40  79
BRANCH  23  94
ATOM     94  OD  HYP A   6     149.060 170.299 192.651  0.00  0.00    -0.390 OA
ATOM     95  HD  HYP A   6     149.844 170.823 192.397  0.00  0.00    +0.210 HD
ENDBRANCH  23  94
BRANCH  32  96
ATOM     96  CB  THR A   4     145.202 170.603 183.295  0.00  0.00    +0.079 C 
ATOM     97  HB  THR A   4     144.599 170.257 182.448  0.00  0.00    +0.061 HD
BRANCH  96  98
ATOM     98  CG2 THR A   4     146.671 170.336 182.962  0.00  0.00    -0.037 C 
ATOM     99 HG21 THR A   4     146.872 170.457 181.891  0.00  0.00    +0.026 HD
ATOM    100 HG22 THR A   4     147.342 170.998 183.519  0.00  0.00    +0.026 HD
ATOM    101 HG23 THR A   4     146.927 169.297 183.201  0.00  0.00    +0.026 HD
ENDBRANCH  96  98
BRANCH  96 102
ATOM    102  OG1 THR A   4     145.005 172.019 183.364  0.00  0.00    -0.390 OA
ATOM    103  HG1 THR A   4     144.071 172.199 183.130  0.00  0.00    +0.210 HD
ENDBRANCH  96 102
ENDBRANCH  32  96
TORSDOF 12
ENDMDL
MODEL 10
REMARK VINA RESULT:      -5.4      2.456      7.948
REMARK  Name = Phalloidin_conf3
REMARK  12 active torsions:
REMARK  status: ('A' for Active; 'I' for Inactive)
REMARK    1  A    between atoms: CB_1  and  CA_2
REMARK    2  A    between atoms: CG_24  and  OD_30
REMARK    3  A    between atoms: CA_34  and  CB_53
REMARK    4  A    between atoms: CA_38  and  CB_52
REMARK    5  A    between atoms: C_42  and  C_46
REMARK    6  A    between atoms: C_46  and  C_47
REMARK    7  A    between atoms: C_47  and  C_48
REMARK    8  A    between atoms: C_47  and  C_49
REMARK    9  A    between atoms: C_47  and  O_51
REMARK   10  A    between atoms: C_49  and  O_50
REMARK   11  A    between atoms: CB_53  and  CG2_54
REMARK   12  A    between atoms: CB_53  and  OG1_55
REMARK                            x       y       z     vdW  Elec       q    Type
REMARK                         _______ _______ _______ _____ _____    ______ ____
ROOT
ATOM      1  CA  ALA A   7     143.196 172.643 186.173  0.00  0.00    +0.097 C 
ATOM      2  C   ALA A   7     142.903 172.396 187.674  0.00  0.00    +0.234 C 
ATOM      3  O   ALA A   7     142.629 173.316 188.445  0.00  0.00    -0.274 OA
ATOM      4  N   UNK A   1     142.871 171.074 188.049  0.00  0.00    -0.302 N 
ATOM      5  C   UNK A   1     142.504 170.615 189.392  0.00  0.00    +0.103 C 
ATOM      6  C   UNK A   1     141.635 169.346 189.336  0.00  0.00    +0.002 C 
ATOM      7  C   UNK A   1     140.313 169.516 188.641  0.00  0.00    -0.006 A 
ATOM      8  C   UNK A   5     140.025 169.426 187.293  0.00  0.00    +0.078 A 
ATOM      9  N   UNK A   5     138.692 169.669 187.110  0.00  0.00    -0.349 N 
ATOM     10  C   UNK A   5     138.084 169.923 188.316  0.00  0.00    +0.048 A 
ATOM     11  C   UNK A   5     136.750 170.228 188.608  0.00  0.00    -0.038 A 
ATOM     12  C   UNK A   5     136.413 170.444 189.948  0.00  0.00    -0.060 A 
ATOM     13  C   UNK A   5     137.377 170.358 190.950  0.00  0.00    -0.061 A 
ATOM     14  C   UNK A   5     138.707 170.052 190.642  0.00  0.00    -0.052 A 
ATOM     15  C   UNK A   5     139.072 169.831 189.297  0.00  0.00    +0.004 A 
ATOM     16  S   UNK A   5     140.989 169.184 185.881  0.00  0.00    -0.105 S 
ATOM     17  C   UNK A   5     141.402 167.405 185.924  0.00  0.00    +0.027 C 
ATOM     18  C   UNK A   5     142.886 167.030 186.144  0.00  0.00    +0.109 C 
ATOM     19  C   UNK A   5     143.876 168.201 186.016  0.00  0.00    +0.237 C 
ATOM     20  O   UNK A   5     144.346 168.730 187.034  0.00  0.00    -0.274 OA
ATOM     21  N   HYP A   6     144.182 168.710 184.774  0.00  0.00    -0.286 N 
ATOM     22  CD  HYP A   6     143.823 168.160 183.479  0.00  0.00    +0.042 C 
ATOM     23  CG  HYP A   6     144.890 168.682 182.521  0.00  0.00    +0.073 C 
ATOM     24  CB  HYP A   6     145.308 170.009 183.150  0.00  0.00    +0.002 C 
ATOM     25  CA  HYP A   6     145.228 169.737 184.647  0.00  0.00    +0.105 C 
ATOM     26  C   HYP A   6     144.946 171.041 185.415  0.00  0.00    +0.234 C 
ATOM     27  O   HYP A   6     145.864 171.716 185.872  0.00  0.00    -0.274 OA
ATOM     28  N   ALA A   7     143.628 171.433 185.466  0.00  0.00    -0.303 N 
ATOM     29  N   UNK A   5     143.108 166.452 187.473  0.00  0.00    -0.302 N 
ATOM     30  C   THR A   4     142.718 165.172 187.791  0.00  0.00    +0.237 C 
ATOM     31  O   THR A   4     142.163 164.451 186.963  0.00  0.00    -0.274 OA
ATOM     32  CA  THR A   4     142.839 164.804 189.284  0.00  0.00    +0.125 C 
ATOM     33  N   THR A   4     143.954 165.482 189.950  0.00  0.00    -0.300 N 
ATOM     34  C   ALA A   3     143.900 165.766 191.306  0.00  0.00    +0.234 C 
ATOM     35  O   ALA A   3     142.892 165.553 191.978  0.00  0.00    -0.274 OA
ATOM     36  CA  ALA A   3     145.193 166.366 191.889  0.00  0.00    +0.097 C 
ATOM     37  N   ALA A   3     145.340 167.730 191.414  0.00  0.00    -0.303 N 
ATOM     38  C   UNK A   2     146.046 168.048 190.280  0.00  0.00    +0.234 C 
ATOM     39  O   UNK A   2     146.502 167.184 189.523  0.00  0.00    -0.274 OA
ATOM     40  C   UNK A   2     146.180 169.563 189.992  0.00  0.00    +0.102 C 
ATOM     41  N   UNK A   2     144.901 170.059 189.477  0.00  0.00    -0.302 N 
ATOM     42  C   UNK A   1     143.756 170.253 190.220  0.00  0.00    +0.234 C 
ATOM     43  O   UNK A   1     143.699 169.981 191.419  0.00  0.00    -0.274 OA
ATOM     44  HA  ALA A   7     144.013 173.374 186.130  0.00  0.00    +0.059 HD
ATOM     45  H   UNK A   1     143.096 170.372 187.354  0.00  0.00    +0.150 HD
ATOM     46  H   UNK A   1     141.973 171.422 189.913  0.00  0.00    +0.060 HD
ATOM     47  H   UNK A   1     142.187 168.533 188.858  0.00  0.00    +0.034 HD
ATOM     48  H   UNK A   1     141.440 169.000 190.358  0.00  0.00    +0.034 HD
ATOM     49  H   UNK A   5     138.229 169.687 186.215  0.00  0.00    +0.166 HD
ATOM     50  H   UNK A   5     135.994 170.292 187.832  0.00  0.00    +0.064 HD
ATOM     51  H   UNK A   5     135.383 170.672 190.214  0.00  0.00    +0.062 HD
ATOM     52  H   UNK A   5     137.094 170.523 191.991  0.00  0.00    +0.062 HD
ATOM     53  H   UNK A   5     139.429 169.973 191.447  0.00  0.00    +0.062 HD
ATOM     54  H   UNK A   5     141.112 167.037 184.933  0.00  0.00    +0.040 HD
ATOM     55  H   UNK A   5     140.744 166.895 186.633  0.00  0.00    +0.040 HD
ATOM     56  H   UNK A   5     143.168 166.248 185.428  0.00  0.00    +0.060 HD
ATOM     57  HD1 HYP A   6     143.806 167.068 183.501  0.00  0.00    +0.049 HD
ATOM     58  HD2 HYP A   6     142.823 168.510 183.205  0.00  0.00    +0.049 HD
ATOM     59  HG  HYP A   6     145.751 168.002 182.476  0.00  0.00    +0.061 HD
ATOM     60  HB1 HYP A   6     146.317 170.306 182.835  0.00  0.00    +0.031 HD
ATOM     61  HB2 HYP A   6     144.635 170.816 182.834  0.00  0.00    +0.031 HD
ATOM     62  HA  HYP A   6     146.159 169.300 185.029  0.00  0.00    +0.060 HD
ATOM     63  H   ALA A   7     142.926 170.798 185.104  0.00  0.00    +0.149 HD
ATOM     64  H   UNK A   5     143.583 167.017 188.175  0.00  0.00    +0.150 HD
ATOM     65  HA  THR A   4     141.909 165.187 189.732  0.00  0.00    +0.062 HD
ATOM     66  H   THR A   4     144.820 165.699 189.451  0.00  0.00    +0.150 HD
ATOM     67  HA  ALA A   3     146.035 165.763 191.518  0.00  0.00    +0.059 HD
ATOM     68  H   ALA A   3     144.776 168.469 191.852  0.00  0.00    +0.149 HD
ATOM     69  H   UNK A   2     146.864 169.658 189.142  0.00  0.00    +0.060 HD
ATOM     70  H   UNK A   2     144.865 170.300 188.491  0.00  0.00    +0.150 HD
ENDROOT
BRANCH   1  71
ATOM     71  CB  ALA A   7     141.952 173.220 185.502  0.00  0.00    -0.038 C 
ATOM     72  HB1 ALA A   7     142.040 174.304 185.376  0.00  0.00    +0.025 HD
ATOM     73  HB2 ALA A   7     141.056 173.026 186.103  0.00  0.00    +0.025 HD
ATOM     74  HB3 ALA A   7     141.798 172.784 184.508  0.00  0.00    +0.025 HD
ENDBRANCH   1  71
BRANCH  36  75
ATOM     75  CB  ALA A   3     145.203 166.323 193.412  0.00  0.00    -0.038 C 
ATOM     76  HB1 ALA A   3     146.220 166.469 193.795  0.00  0.00    +0.025 HD
ATOM     77  HB2 ALA A   3     144.575 167.108 193.847  0.00  0.00    +0.025 HD
ATOM     78  HB3 ALA A   3     144.837 165.355 193.770  0.00  0.00    +0.025 HD
ENDBRANCH  36  75
BRANCH  40  79
ATOM     79  C   UNK A   2     146.733 170.407 191.155  0.00  0.00    +0.005 C 
ATOM     80  H   UNK A   2     146.037 170.317 191.999  0.00  0.00    +0.032 HD
ATOM     81  H   UNK A   2     147.688 169.981 191.497  0.00  0.00    +0.032 HD
BRANCH  79  82
ATOM     82  C   UNK A   2     146.961 171.905 190.840  0.00  0.00    +0.088 C 
BRANCH  82  83
ATOM     83  C   UNK A   2     148.447 172.230 191.060  0.00  0.00    -0.034 C 
ATOM     84  H   UNK A   2     148.629 173.298 190.890  0.00  0.00    +0.026 HD
ATOM     85  H   UNK A   2     148.750 172.025 192.096  0.00  0.00    +0.026 HD
ATOM     86  H   UNK A   2     149.101 171.658 190.392  0.00  0.00    +0.026 HD
ENDBRANCH  82  83
BRANCH  82  87
ATOM     87  C   UNK A   2     146.088 172.850 191.694  0.00  0.00    +0.073 C 
ATOM     88  H   UNK A   2     145.485 173.497 191.047  0.00  0.00    +0.059 HD
ATOM     89  H   UNK A   2     145.380 172.286 192.311  0.00  0.00    +0.059 HD
BRANCH  87  90
ATOM     90  O   UNK A   2     146.884 173.669 192.534  0.00  0.00    -0.392 OA
ATOM     91  H   UNK A   2     147.090 173.150 193.330  0.00  0.00    +0.210 HD
ENDBRANCH  87  90
ENDBRANCH  82  87
BRANCH  82  92
ATOM     92  O   UNK A   2     146.671 172.131 189.453  0.00  0.00    -0.387 OA
ATOM     93  H   UNK A   2     147.516 172.247 188.985  0.00  0.00    +0.210 HD
ENDBRANCH  82  92
ENDBRANCH  79  82
ENDBRANCH  40  79
BRANCH  23  94
ATOM     94  OD  HYP A   6     144.383 168.901 181.217  0.00  0.00    -0.390 OA
ATOM     95  HD  HYP A   6     144.426 169.855 181.018  0.00  0.00    +0.210 HD
ENDBRANCH  23  94
BRANCH  32  96
ATOM     96  CB  THR A   4     142.857 163.270 189.492  0.00  0.00    +0.079 C 
ATOM     97  HB  THR A   4     142.826 163.059 190.567  0.00  0.00    +0.061 HD
BRANCH  96  98
ATOM     98  CG2 THR A   4     144.095 162.580 188.918  0.00  0.00    -0.037 C 
ATOM     99 HG21 THR A   4     144.616 161.983 189.676  0.00  0.00    +0.026 HD
ATOM    100 HG22 THR A   4     143.845 161.929 188.074  0.00  0.00    +0.026 HD
ATOM    101 HG23 THR A   4     144.818 163.331 188.577  0.00  0.00    +0.026 HD
ENDBRANCH  96  98
BRANCH  96 102
ATOM    102  OG1 THR A   4     141.695 162.644 188.937  0.00  0.00    -0.390 OA
ATOM    103  HG1 THR A   4     141.996 162.031 188.235  0.00  0.00    +0.210 HD
ENDBRANCH  96 102
ENDBRANCH  32  96
TORSDOF 12
ENDMDL
