MODEL 1
REMARK VINA RESULT:      -5.6      0.000      0.000
REMARK  Name = Phalloidin_conf2
REMARK  12 active torsions:
REMARK  status: ('A' for Active; 'I' for Inactive)
REMARK    1  A    between atoms: CB_1  and  CA_2
REMARK    2  A    between atoms: CG_24  and  OD_30
REMARK    3  A    between atoms: CA_34  and  CB_53
REMARK    4  A    between atoms: CA_38  and  CB_52
REMARK    5  A    between atoms: C_42  and  C_46
REMARK    6  A    between atoms: C_46  and  C_47
REMARK    7  A    between atoms: C_47  and  C_48
REMARK    8  A    between atoms: C_47  and  C_49
REMARK    9  A    between atoms: C_47  and  O_51
REMARK   10  A    between atoms: C_49  and  O_50
REMARK   11  A    between atoms: CB_53  and  CG2_54
REMARK   12  A    between atoms: CB_53  and  OG1_55
REMARK                            x       y       z     vdW  Elec       q    Type
REMARK                         _______ _______ _______ _____ _____    ______ ____
ROOT
ATOM      1  CA  ALA A   7     142.970 164.412 188.688  0.00  0.00    +0.097 C 
ATOM      2  C   ALA A   7     144.070 165.387 189.150  0.00  0.00    +0.234 C 
ATOM      3  O   ALA A   7     144.392 166.333 188.427  0.00  0.00    -0.274 OA
ATOM      4  N   UNK A   1     144.671 165.210 190.369  0.00  0.00    -0.302 N 
ATOM      5  C   UNK A   1     145.956 165.861 190.708  0.00  0.00    +0.103 C 
ATOM      6  C   UNK A   1     147.093 165.345 189.790  0.00  0.00    +0.002 C 
ATOM      7  C   UNK A   1     148.341 166.172 189.684  0.00  0.00    -0.006 A 
ATOM      8  C   UNK A   5     148.954 166.605 188.521  0.00  0.00    +0.078 A 
ATOM      9  N   UNK A   5     150.081 167.300 188.845  0.00  0.00    -0.349 N 
ATOM     10  C   UNK A   5     150.246 167.332 190.207  0.00  0.00    +0.048 A 
ATOM     11  C   UNK A   5     151.257 167.924 190.975  0.00  0.00    -0.038 A 
ATOM     12  C   UNK A   5     151.187 167.776 192.363  0.00  0.00    -0.060 A 
ATOM     13  C   UNK A   5     150.153 167.057 192.952  0.00  0.00    -0.061 A 
ATOM     14  C   UNK A   5     149.149 166.473 192.167  0.00  0.00    -0.052 A 
ATOM     15  C   UNK A   5     149.185 166.615 190.764  0.00  0.00    +0.004 A 
ATOM     16  S   UNK A   5     148.634 166.375 186.831  0.00  0.00    -0.105 S 
ATOM     17  C   UNK A   5     147.064 167.276 186.629  0.00  0.00    +0.027 C 
ATOM     18  C   UNK A   5     146.414 167.143 185.243  0.00  0.00    +0.109 C 
ATOM     19  C   UNK A   5     145.226 166.143 185.253  0.00  0.00    +0.237 C 
ATOM     20  O   UNK A   5     144.065 166.513 185.464  0.00  0.00    -0.274 OA
ATOM     21  N   HYP A   6     145.473 164.801 185.047  0.00  0.00    -0.286 N 
ATOM     22  CD  HYP A   6     146.698 164.192 184.545  0.00  0.00    +0.042 C 
ATOM     23  CG  HYP A   6     146.417 162.687 184.493  0.00  0.00    +0.073 C 
ATOM     24  CB  HYP A   6     144.898 162.591 184.402  0.00  0.00    +0.002 C 
ATOM     25  CA  HYP A   6     144.393 163.819 185.164  0.00  0.00    +0.105 C 
ATOM     26  C   HYP A   6     144.170 163.533 186.665  0.00  0.00    +0.234 C 
ATOM     27  O   HYP A   6     144.915 162.799 187.313  0.00  0.00    -0.274 OA
ATOM     28  N   ALA A   7     143.166 164.287 187.237  0.00  0.00    -0.303 N 
ATOM     29  N   UNK A   5     145.845 168.445 184.871  0.00  0.00    -0.302 N 
ATOM     30  C   THR A   4     146.158 169.122 183.722  0.00  0.00    +0.237 C 
ATOM     31  O   THR A   4     146.906 168.654 182.863  0.00  0.00    -0.274 OA
ATOM     32  CA  THR A   4     145.422 170.463 183.516  0.00  0.00    +0.125 C 
ATOM     33  N   THR A   4     144.753 170.938 184.729  0.00  0.00    -0.300 N 
ATOM     34  C   ALA A   3     145.397 171.627 185.728  0.00  0.00    +0.234 C 
ATOM     35  O   ALA A   3     146.596 171.901 185.685  0.00  0.00    -0.274 OA
ATOM     36  CA  ALA A   3     144.495 171.977 186.932  0.00  0.00    +0.097 C 
ATOM     37  N   ALA A   3     145.078 171.413 188.137  0.00  0.00    -0.303 N 
ATOM     38  C   UNK A   2     145.059 170.061 188.370  0.00  0.00    +0.234 C 
ATOM     39  O   UNK A   2     144.548 169.279 187.568  0.00  0.00    -0.274 OA
ATOM     40  C   UNK A   2     145.726 169.601 189.693  0.00  0.00    +0.102 C 
ATOM     41  N   UNK A   2     145.613 168.148 189.770  0.00  0.00    -0.302 N 
ATOM     42  C   UNK A   1     145.901 167.407 190.885  0.00  0.00    +0.234 C 
ATOM     43  O   UNK A   1     146.173 167.938 191.963  0.00  0.00    -0.274 OA
ATOM     44  HA  ALA A   7     142.016 164.937 188.812  0.00  0.00    +0.059 HD
ATOM     45  H   UNK A   1     144.372 164.449 190.965  0.00  0.00    +0.150 HD
ATOM     46  H   UNK A   1     146.169 165.485 191.717  0.00  0.00    +0.060 HD
ATOM     47  H   UNK A   1     146.705 165.158 188.785  0.00  0.00    +0.034 HD
ATOM     48  H   UNK A   1     147.385 164.348 190.149  0.00  0.00    +0.034 HD
ATOM     49  H   UNK A   5     150.712 167.709 188.172  0.00  0.00    +0.166 HD
ATOM     50  H   UNK A   5     152.072 168.470 190.512  0.00  0.00    +0.064 HD
ATOM     51  H   UNK A   5     151.959 168.219 192.988  0.00  0.00    +0.062 HD
ATOM     52  H   UNK A   5     150.117 166.947 194.034  0.00  0.00    +0.062 HD
ATOM     53  H   UNK A   5     148.351 165.920 192.650  0.00  0.00    +0.062 HD
ATOM     54  H   UNK A   5     146.379 166.929 187.394  0.00  0.00    +0.040 HD
ATOM     55  H   UNK A   5     147.293 168.327 186.841  0.00  0.00    +0.040 HD
ATOM     56  H   UNK A   5     147.137 166.852 184.477  0.00  0.00    +0.060 HD
ATOM     57  HD1 HYP A   6     147.539 164.428 185.193  0.00  0.00    +0.049 HD
ATOM     58  HD2 HYP A   6     146.878 164.600 183.544  0.00  0.00    +0.049 HD
ATOM     59  HG  HYP A   6     146.908 162.222 183.632  0.00  0.00    +0.061 HD
ATOM     60  HB1 HYP A   6     144.502 161.652 184.802  0.00  0.00    +0.031 HD
ATOM     61  HB2 HYP A   6     144.596 162.678 183.351  0.00  0.00    +0.031 HD
ATOM     62  HA  HYP A   6     143.467 164.202 184.722  0.00  0.00    +0.060 HD
ATOM     63  H   ALA A   7     142.877 165.098 186.690  0.00  0.00    +0.149 HD
ATOM     64  H   UNK A   5     145.133 168.831 185.494  0.00  0.00    +0.150 HD
ATOM     65  HA  THR A   4     146.196 171.192 183.248  0.00  0.00    +0.062 HD
ATOM     66  H   THR A   4     143.754 170.770 184.767  0.00  0.00    +0.150 HD
ATOM     67  HA  ALA A   3     143.506 171.525 186.795  0.00  0.00    +0.059 HD
ATOM     68  H   ALA A   3     145.619 172.009 188.769  0.00  0.00    +0.149 HD
ATOM     69  H   UNK A   2     145.143 170.011 190.525  0.00  0.00    +0.060 HD
ATOM     70  H   UNK A   2     145.174 167.673 188.976  0.00  0.00    +0.150 HD
ENDROOT
BRANCH   1  71
ATOM     71  CB  ALA A   7     142.886 163.083 189.423  0.00  0.00    -0.038 C 
ATOM     72  HB1 ALA A   7     141.976 163.025 190.027  0.00  0.00    +0.025 HD
ATOM     73  HB2 ALA A   7     142.900 162.225 188.742  0.00  0.00    +0.025 HD
ATOM     74  HB3 ALA A   7     143.743 162.966 190.096  0.00  0.00    +0.025 HD
ENDBRANCH   1  71
BRANCH  36  75
ATOM     75  CB  ALA A   3     144.344 173.486 187.042  0.00  0.00    -0.038 C 
ATOM     76  HB1 ALA A   3     143.600 173.878 186.338  0.00  0.00    +0.025 HD
ATOM     77  HB2 ALA A   3     145.295 173.989 186.830  0.00  0.00    +0.025 HD
ATOM     78  HB3 ALA A   3     144.026 173.769 188.052  0.00  0.00    +0.025 HD
ENDBRANCH  36  75
BRANCH  40  79
ATOM     79  C   UNK A   2     147.204 170.033 189.733  0.00  0.00    +0.005 C 
ATOM     80  H   UNK A   2     147.485 170.431 188.747  0.00  0.00    +0.032 HD
ATOM     81  H   UNK A   2     147.860 169.174 189.898  0.00  0.00    +0.032 HD
BRANCH  79  82
ATOM     82  C   UNK A   2     147.529 171.082 190.810  0.00  0.00    +0.088 C 
BRANCH  82  83
ATOM     83  C   UNK A   2     147.944 172.401 190.141  0.00  0.00    -0.034 C 
ATOM     84  H   UNK A   2     148.987 172.650 190.363  0.00  0.00    +0.026 HD
ATOM     85  H   UNK A   2     147.347 173.236 190.525  0.00  0.00    +0.026 HD
ATOM     86  H   UNK A   2     147.819 172.353 189.054  0.00  0.00    +0.026 HD
ENDBRANCH  82  83
BRANCH  82  87
ATOM     87  C   UNK A   2     148.633 170.597 191.775  0.00  0.00    +0.073 C 
ATOM     88  H   UNK A   2     149.132 171.432 192.276  0.00  0.00    +0.059 HD
ATOM     89  H   UNK A   2     149.375 169.987 191.253  0.00  0.00    +0.059 HD
BRANCH  87  90
ATOM     90  O   UNK A   2     148.034 169.744 192.760  0.00  0.00    -0.392 OA
ATOM     91  H   UNK A   2     147.608 170.339 193.405  0.00  0.00    +0.210 HD
ENDBRANCH  87  90
ENDBRANCH  82  87
BRANCH  82  92
ATOM     92  O   UNK A   2     146.347 171.355 191.586  0.00  0.00    -0.387 OA
ATOM     93  H   UNK A   2     146.165 172.304 191.407  0.00  0.00    +0.210 HD
ENDBRANCH  82  92
ENDBRANCH  79  82
ENDBRANCH  40  79
BRANCH  23  94
ATOM     94  OD  HYP A   6     146.907 162.020 185.652  0.00  0.00    -0.390 OA
ATOM     95  HD  HYP A   6     147.134 162.689 186.335  0.00  0.00    +0.210 HD
ENDBRANCH  23  94
BRANCH  32  96
ATOM     96  CB  THR A   4     144.403 170.275 182.363  0.00  0.00    +0.079 C 
ATOM     97  HB  THR A   4     144.836 170.572 181.398  0.00  0.00    +0.061 HD
BRANCH  96  98
ATOM     98  CG2 THR A   4     143.138 171.093 182.601  0.00  0.00    -0.037 C 
ATOM     99 HG21 THR A   4     142.925 171.166 183.673  0.00  0.00    +0.026 HD
ATOM    100 HG22 THR A   4     142.276 170.637 182.105  0.00  0.00    +0.026 HD
ATOM    101 HG23 THR A   4     143.259 172.119 182.236  0.00  0.00    +0.026 HD
ENDBRANCH  96  98
BRANCH  96 102
ATOM    102  OG1 THR A   4     144.031 168.886 182.235  0.00  0.00    -0.390 OA
ATOM    103  HG1 THR A   4     143.114 168.867 181.909  0.00  0.00    +0.210 HD
ENDBRANCH  96 102
ENDBRANCH  32  96
TORSDOF 12
ENDMDL
MODEL 2
REMARK VINA RESULT:      -5.6      6.033     11.210
REMARK  Name = Phalloidin_conf2
REMARK  12 active torsions:
REMARK  status: ('A' for Active; 'I' for Inactive)
REMARK    1  A    between atoms: CB_1  and  CA_2
REMARK    2  A    between atoms: CG_24  and  OD_30
REMARK    3  A    between atoms: CA_34  and  CB_53
REMARK    4  A    between atoms: CA_38  and  CB_52
REMARK    5  A    between atoms: C_42  and  C_46
REMARK    6  A    between atoms: C_46  and  C_47
REMARK    7  A    between atoms: C_47  and  C_48
REMARK    8  A    between atoms: C_47  and  C_49
REMARK    9  A    between atoms: C_47  and  O_51
REMARK   10  A    between atoms: C_49  and  O_50
REMARK   11  A    between atoms: CB_53  and  CG2_54
REMARK   12  A    between atoms: CB_53  and  OG1_55
REMARK                            x       y       z     vdW  Elec       q    Type
REMARK                         _______ _______ _______ _____ _____    ______ ____
ROOT
ATOM      1  CA  ALA A   7     151.687 165.830 190.471  0.00  0.00    +0.097 C 
ATOM      2  C   ALA A   7     151.050 165.184 189.225  0.00  0.00    +0.234 C 
ATOM      3  O   ALA A   7     151.369 164.038 188.900  0.00  0.00    -0.274 OA
ATOM      4  N   UNK A   1     150.119 165.878 188.498  0.00  0.00    -0.302 N 
ATOM      5  C   UNK A   1     149.754 165.483 187.119  0.00  0.00    +0.103 C 
ATOM      6  C   UNK A   1     150.969 165.620 186.167  0.00  0.00    +0.002 C 
ATOM      7  C   UNK A   1     150.928 164.878 184.862  0.00  0.00    -0.006 A 
ATOM      8  C   UNK A   5     151.898 164.029 184.359  0.00  0.00    +0.078 A 
ATOM      9  N   UNK A   5     151.503 163.581 183.134  0.00  0.00    -0.349 N 
ATOM     10  C   UNK A   5     150.290 164.126 182.795  0.00  0.00    +0.048 A 
ATOM     11  C   UNK A   5     149.519 163.951 181.639  0.00  0.00    -0.038 A 
ATOM     12  C   UNK A   5     148.318 164.659 181.549  0.00  0.00    -0.060 A 
ATOM     13  C   UNK A   5     147.914 165.512 182.569  0.00  0.00    -0.061 A 
ATOM     14  C   UNK A   5     148.698 165.673 183.720  0.00  0.00    -0.052 A 
ATOM     15  C   UNK A   5     149.911 164.962 183.847  0.00  0.00    +0.004 A 
ATOM     16  S   UNK A   5     153.463 163.521 184.913  0.00  0.00    -0.105 S 
ATOM     17  C   UNK A   5     153.032 162.550 186.392  0.00  0.00    +0.027 C 
ATOM     18  C   UNK A   5     154.230 162.067 187.223  0.00  0.00    +0.109 C 
ATOM     19  C   UNK A   5     154.437 162.928 188.498  0.00  0.00    +0.237 C 
ATOM     20  O   UNK A   5     153.913 162.629 189.578  0.00  0.00    -0.274 OA
ATOM     21  N   HYP A   6     155.205 164.072 188.421  0.00  0.00    -0.286 N 
ATOM     22  CD  HYP A   6     156.098 164.470 187.340  0.00  0.00    +0.042 C 
ATOM     23  CG  HYP A   6     156.709 165.803 187.782  0.00  0.00    +0.073 C 
ATOM     24  CB  HYP A   6     156.588 165.787 189.303  0.00  0.00    +0.002 C 
ATOM     25  CA  HYP A   6     155.326 164.966 189.575  0.00  0.00    +0.105 C 
ATOM     26  C   HYP A   6     154.054 165.840 189.636  0.00  0.00    +0.234 C 
ATOM     27  O   HYP A   6     153.885 166.808 188.896  0.00  0.00    -0.274 OA
ATOM     28  N   ALA A   7     153.075 165.349 190.475  0.00  0.00    -0.303 N 
ATOM     29  N   UNK A   5     153.948 160.705 187.695  0.00  0.00    -0.302 N 
ATOM     30  C   THR A   4     154.759 159.626 187.459  0.00  0.00    +0.237 C 
ATOM     31  O   THR A   4     155.840 159.726 186.880  0.00  0.00    -0.274 OA
ATOM     32  CA  THR A   4     154.286 158.289 188.071  0.00  0.00    +0.125 C 
ATOM     33  N   THR A   4     152.895 158.333 188.527  0.00  0.00    -0.300 N 
ATOM     34  C   ALA A   3     151.818 158.151 187.693  0.00  0.00    +0.234 C 
ATOM     35  O   ALA A   3     151.936 157.936 186.488  0.00  0.00    -0.274 OA
ATOM     36  CA  ALA A   3     150.449 158.293 188.395  0.00  0.00    +0.097 C 
ATOM     37  N   ALA A   3     149.684 159.333 187.726  0.00  0.00    -0.303 N 
ATOM     38  C   UNK A   2     150.018 160.657 187.858  0.00  0.00    +0.234 C 
ATOM     39  O   UNK A   2     150.977 161.012 188.545  0.00  0.00    -0.274 OA
ATOM     40  C   UNK A   2     149.118 161.654 187.081  0.00  0.00    +0.102 C 
ATOM     41  N   UNK A   2     149.619 163.001 187.335  0.00  0.00    -0.302 N 
ATOM     42  C   UNK A   1     148.961 164.150 186.988  0.00  0.00    +0.234 C 
ATOM     43  O   UNK A   1     147.818 164.127 186.527  0.00  0.00    -0.274 OA
ATOM     44  HA  ALA A   7     151.211 165.363 191.341  0.00  0.00    +0.059 HD
ATOM     45  H   UNK A   1     149.843 166.804 188.796  0.00  0.00    +0.150 HD
ATOM     46  H   UNK A   1     149.031 166.254 186.821  0.00  0.00    +0.060 HD
ATOM     47  H   UNK A   1     151.890 165.355 186.697  0.00  0.00    +0.034 HD
ATOM     48  H   UNK A   1     151.096 166.688 185.938  0.00  0.00    +0.034 HD
ATOM     49  H   UNK A   5     152.044 162.957 182.554  0.00  0.00    +0.166 HD
ATOM     50  H   UNK A   5     149.844 163.298 180.836  0.00  0.00    +0.064 HD
ATOM     51  H   UNK A   5     147.698 164.550 180.661  0.00  0.00    +0.062 HD
ATOM     52  H   UNK A   5     146.979 166.060 182.479  0.00  0.00    +0.062 HD
ATOM     53  H   UNK A   5     148.360 166.341 184.505  0.00  0.00    +0.062 HD
ATOM     54  H   UNK A   5     152.374 163.154 187.007  0.00  0.00    +0.040 HD
ATOM     55  H   UNK A   5     152.451 161.694 186.030  0.00  0.00    +0.040 HD
ATOM     56  H   UNK A   5     155.152 162.044 186.636  0.00  0.00    +0.060 HD
ATOM     57  HD1 HYP A   6     155.552 164.562 186.405  0.00  0.00    +0.049 HD
ATOM     58  HD2 HYP A   6     156.862 163.691 187.247  0.00  0.00    +0.049 HD
ATOM     59  HG  HYP A   6     157.750 165.889 187.456  0.00  0.00    +0.061 HD
ATOM     60  HB1 HYP A   6     156.546 166.789 189.742  0.00  0.00    +0.031 HD
ATOM     61  HB2 HYP A   6     157.453 165.258 189.724  0.00  0.00    +0.031 HD
ATOM     62  HA  HYP A   6     155.422 164.394 190.504  0.00  0.00    +0.060 HD
ATOM     63  H   ALA A   7     153.194 164.372 190.743  0.00  0.00    +0.149 HD
ATOM     64  H   UNK A   5     153.118 160.582 188.277  0.00  0.00    +0.150 HD
ATOM     65  HA  THR A   4     154.355 157.549 187.265  0.00  0.00    +0.062 HD
ATOM     66  H   THR A   4     152.770 158.458 189.526  0.00  0.00    +0.150 HD
ATOM     67  HA  ALA A   3     150.598 158.604 189.435  0.00  0.00    +0.059 HD
ATOM     68  H   ALA A   3     148.960 159.078 187.050  0.00  0.00    +0.149 HD
ATOM     69  H   UNK A   2     148.111 161.601 187.507  0.00  0.00    +0.060 HD
ATOM     70  H   UNK A   2     150.457 163.083 187.918  0.00  0.00    +0.150 HD
ENDROOT
BRANCH   1  71
ATOM     71  CB  ALA A   7     151.549 167.340 190.601  0.00  0.00    -0.038 C 
ATOM     72  HB1 ALA A   7     151.838 167.840 189.672  0.00  0.00    +0.025 HD
ATOM     73  HB2 ALA A   7     150.530 167.649 190.854  0.00  0.00    +0.025 HD
ATOM     74  HB3 ALA A   7     152.200 167.713 191.399  0.00  0.00    +0.025 HD
ENDBRANCH   1  71
BRANCH  36  75
ATOM     75  CB  ALA A   3     149.715 156.962 188.370  0.00  0.00    -0.038 C 
ATOM     76  HB1 ALA A   3     150.166 156.232 189.054  0.00  0.00    +0.025 HD
ATOM     77  HB2 ALA A   3     149.733 156.526 187.365  0.00  0.00    +0.025 HD
ATOM     78  HB3 ALA A   3     148.669 157.093 188.668  0.00  0.00    +0.025 HD
ENDBRANCH  36  75
BRANCH  40  79
ATOM     79  C   UNK A   2     149.142 161.342 185.572  0.00  0.00    +0.005 C 
ATOM     80  H   UNK A   2     149.890 160.559 185.383  0.00  0.00    +0.032 HD
ATOM     81  H   UNK A   2     149.478 162.210 184.997  0.00  0.00    +0.032 HD
BRANCH  79  82
ATOM     82  C   UNK A   2     147.788 160.894 184.996  0.00  0.00    +0.088 C 
BRANCH  82  83
ATOM     83  C   UNK A   2     147.376 161.832 183.852  0.00  0.00    -0.034 C 
ATOM     84  H   UNK A   2     146.349 161.635 183.524  0.00  0.00    +0.026 HD
ATOM     85  H   UNK A   2     148.009 161.672 182.971  0.00  0.00    +0.026 HD
ATOM     86  H   UNK A   2     147.453 162.883 184.151  0.00  0.00    +0.026 HD
ENDBRANCH  82  83
BRANCH  82  87
ATOM     87  C   UNK A   2     146.687 160.847 186.078  0.00  0.00    +0.073 C 
ATOM     88  H   UNK A   2     147.108 160.851 187.088  0.00  0.00    +0.059 HD
ATOM     89  H   UNK A   2     146.047 159.970 185.953  0.00  0.00    +0.059 HD
BRANCH  87  90
ATOM     90  O   UNK A   2     145.837 161.990 185.914  0.00  0.00    -0.392 OA
ATOM     91  H   UNK A   2     145.005 161.652 185.534  0.00  0.00    +0.210 HD
ENDBRANCH  87  90
ENDBRANCH  82  87
BRANCH  82  92
ATOM     92  O   UNK A   2     147.919 159.574 184.435  0.00  0.00    -0.387 OA
ATOM     93  H   UNK A   2     148.881 159.386 184.505  0.00  0.00    +0.210 HD
ENDBRANCH  82  92
ENDBRANCH  79  82
ENDBRANCH  40  79
BRANCH  23  94
ATOM     94  OD  HYP A   6     156.012 166.912 187.223  0.00  0.00    -0.390 OA
ATOM     95  HD  HYP A   6     155.971 166.805 186.247  0.00  0.00    +0.210 HD
ENDBRANCH  23  94
BRANCH  32  96
ATOM     96  CB  THR A   4     155.239 157.937 189.242  0.00  0.00    +0.079 C 
ATOM     97  HB  THR A   4     156.238 158.361 189.081  0.00  0.00    +0.061 HD
BRANCH  96  98
ATOM     98  CG2 THR A   4     155.372 156.428 189.413  0.00  0.00    -0.037 C 
ATOM     99 HG21 THR A   4     156.427 156.142 189.488  0.00  0.00    +0.026 HD
ATOM    100 HG22 THR A   4     154.927 155.895 188.567  0.00  0.00    +0.026 HD
ATOM    101 HG23 THR A   4     154.891 156.093 190.339  0.00  0.00    +0.026 HD
ENDBRANCH  96  98
BRANCH  96 102
ATOM    102  OG1 THR A   4     154.751 158.496 190.479  0.00  0.00    -0.390 OA
ATOM    103  HG1 THR A   4     153.877 158.098 190.645  0.00  0.00    +0.210 HD
ENDBRANCH  96 102
ENDBRANCH  32  96
TORSDOF 12
ENDMDL
MODEL 3
REMARK VINA RESULT:      -5.5      3.090      7.012
REMARK  Name = Phalloidin_conf2
REMARK  12 active torsions:
REMARK  status: ('A' for Active; 'I' for Inactive)
REMARK    1  A    between atoms: CB_1  and  CA_2
REMARK    2  A    between atoms: CG_24  and  OD_30
REMARK    3  A    between atoms: CA_34  and  CB_53
REMARK    4  A    between atoms: CA_38  and  CB_52
REMARK    5  A    between atoms: C_42  and  C_46
REMARK    6  A    between atoms: C_46  and  C_47
REMARK    7  A    between atoms: C_47  and  C_48
REMARK    8  A    between atoms: C_47  and  C_49
REMARK    9  A    between atoms: C_47  and  O_51
REMARK   10  A    between atoms: C_49  and  O_50
REMARK   11  A    between atoms: CB_53  and  CG2_54
REMARK   12  A    between atoms: CB_53  and  OG1_55
REMARK                            x       y       z     vdW  Elec       q    Type
REMARK                         _______ _______ _______ _____ _____    ______ ____
ROOT
ATOM      1  CA  ALA A   7     146.248 169.458 184.246  0.00  0.00    +0.097 C 
ATOM      2  C   ALA A   7     145.459 169.896 185.495  0.00  0.00    +0.234 C 
ATOM      3  O   ALA A   7     146.005 169.878 186.601  0.00  0.00    -0.274 OA
ATOM      4  N   UNK A   1     144.163 170.323 185.368  0.00  0.00    -0.302 N 
ATOM      5  C   UNK A   1     143.249 170.399 186.530  0.00  0.00    +0.103 C 
ATOM      6  C   UNK A   1     142.993 168.990 187.122  0.00  0.00    +0.002 C 
ATOM      7  C   UNK A   1     142.461 168.901 188.523  0.00  0.00    -0.006 A 
ATOM      8  C   UNK A   5     142.981 168.150 189.562  0.00  0.00    +0.078 A 
ATOM      9  N   UNK A   5     142.194 168.311 190.664  0.00  0.00    -0.349 N 
ATOM     10  C   UNK A   5     141.145 169.149 190.381  0.00  0.00    +0.048 A 
ATOM     11  C   UNK A   5     140.099 169.586 191.203  0.00  0.00    -0.038 A 
ATOM     12  C   UNK A   5     139.139 170.429 190.637  0.00  0.00    -0.060 A 
ATOM     13  C   UNK A   5     139.221 170.808 189.302  0.00  0.00    -0.061 A 
ATOM     14  C   UNK A   5     140.276 170.362 188.495  0.00  0.00    -0.052 A 
ATOM     15  C   UNK A   5     141.268 169.520 189.040  0.00  0.00    +0.004 A 
ATOM     16  S   UNK A   5     144.309 167.041 189.703  0.00  0.00    -0.105 S 
ATOM     17  C   UNK A   5     145.737 168.145 189.464  0.00  0.00    +0.027 C 
ATOM     18  C   UNK A   5     147.098 167.438 189.383  0.00  0.00    +0.109 C 
ATOM     19  C   UNK A   5     147.609 167.329 187.920  0.00  0.00    +0.237 C 
ATOM     20  O   UNK A   5     148.334 168.197 187.418  0.00  0.00    -0.274 OA
ATOM     21  N   HYP A   6     147.226 166.250 187.150  0.00  0.00    -0.286 N 
ATOM     22  CD  HYP A   6     146.596 165.017 187.603  0.00  0.00    +0.042 C 
ATOM     23  CG  HYP A   6     146.412 164.164 186.345  0.00  0.00    +0.073 C 
ATOM     24  CB  HYP A   6     147.459 164.697 185.372  0.00  0.00    +0.002 C 
ATOM     25  CA  HYP A   6     147.596 166.177 185.735  0.00  0.00    +0.105 C 
ATOM     26  C   HYP A   6     146.621 167.074 184.940  0.00  0.00    +0.234 C 
ATOM     27  O   HYP A   6     145.477 166.719 184.665  0.00  0.00    -0.274 OA
ATOM     28  N   ALA A   7     147.094 168.349 184.708  0.00  0.00    -0.303 N 
ATOM     29  N   UNK A   5     148.087 168.253 190.099  0.00  0.00    -0.302 N 
ATOM     30  C   THR A   4     148.863 167.791 191.130  0.00  0.00    +0.237 C 
ATOM     31  O   THR A   4     148.837 166.618 191.501  0.00  0.00    -0.274 OA
ATOM     32  CA  THR A   4     149.859 168.810 191.725  0.00  0.00    +0.125 C 
ATOM     33  N   THR A   4     149.587 170.185 191.301  0.00  0.00    -0.300 N 
ATOM     34  C   ALA A   3     148.649 170.991 191.901  0.00  0.00    +0.234 C 
ATOM     35  O   ALA A   3     147.957 170.620 192.847  0.00  0.00    -0.274 OA
ATOM     36  CA  ALA A   3     148.506 172.383 191.246  0.00  0.00    +0.097 C 
ATOM     37  N   ALA A   3     147.126 172.566 190.829  0.00  0.00    -0.303 N 
ATOM     38  C   UNK A   2     146.610 171.882 189.757  0.00  0.00    +0.234 C 
ATOM     39  O   UNK A   2     147.297 171.089 189.111  0.00  0.00    -0.274 OA
ATOM     40  C   UNK A   2     145.121 172.172 189.432  0.00  0.00    +0.102 C 
ATOM     41  N   UNK A   2     144.749 171.363 188.276  0.00  0.00    -0.302 N 
ATOM     42  C   UNK A   1     143.581 171.503 187.576  0.00  0.00    +0.234 C 
ATOM     43  O   UNK A   1     142.793 172.422 187.810  0.00  0.00    -0.274 OA
ATOM     44  HA  ALA A   7     146.938 170.277 184.011  0.00  0.00    +0.059 HD
ATOM     45  H   UNK A   1     143.740 170.364 184.450  0.00  0.00    +0.150 HD
ATOM     46  H   UNK A   1     142.303 170.731 186.083  0.00  0.00    +0.060 HD
ATOM     47  H   UNK A   1     143.901 168.383 187.048  0.00  0.00    +0.034 HD
ATOM     48  H   UNK A   1     142.279 168.475 186.463  0.00  0.00    +0.034 HD
ATOM     49  H   UNK A   5     142.355 167.857 191.550  0.00  0.00    +0.166 HD
ATOM     50  H   UNK A   5     140.027 169.275 192.240  0.00  0.00    +0.064 HD
ATOM     51  H   UNK A   5     138.310 170.782 191.248  0.00  0.00    +0.062 HD
ATOM     52  H   UNK A   5     138.461 171.460 188.877  0.00  0.00    +0.062 HD
ATOM     53  H   UNK A   5     140.321 170.675 187.457  0.00  0.00    +0.062 HD
ATOM     54  H   UNK A   5     145.565 168.722 188.562  0.00  0.00    +0.040 HD
ATOM     55  H   UNK A   5     145.721 168.843 190.310  0.00  0.00    +0.040 HD
ATOM     56  H   UNK A   5     147.072 166.446 189.841  0.00  0.00    +0.060 HD
ATOM     57  HD1 HYP A   6     145.650 165.226 188.096  0.00  0.00    +0.049 HD
ATOM     58  HD2 HYP A   6     147.284 164.542 188.311  0.00  0.00    +0.049 HD
ATOM     59  HG  HYP A   6     146.560 163.101 186.561  0.00  0.00    +0.061 HD
ATOM     60  HB1 HYP A   6     147.190 164.541 184.322  0.00  0.00    +0.031 HD
ATOM     61  HB2 HYP A   6     148.415 164.195 185.565  0.00  0.00    +0.031 HD
ATOM     62  HA  HYP A   6     148.623 166.526 185.581  0.00  0.00    +0.060 HD
ATOM     63  H   ALA A   7     147.887 168.623 185.289  0.00  0.00    +0.149 HD
ATOM     64  H   UNK A   5     148.231 169.205 189.761  0.00  0.00    +0.150 HD
ATOM     65  HA  THR A   4     149.729 168.759 192.812  0.00  0.00    +0.062 HD
ATOM     66  H   THR A   4     150.180 170.534 190.555  0.00  0.00    +0.150 HD
ATOM     67  HA  ALA A   3     149.136 172.436 190.351  0.00  0.00    +0.059 HD
ATOM     68  H   ALA A   3     146.488 173.118 191.407  0.00  0.00    +0.149 HD
ATOM     69  H   UNK A   2     145.040 173.220 189.128  0.00  0.00    +0.060 HD
ATOM     70  H   UNK A   2     145.466 170.736 187.897  0.00  0.00    +0.150 HD
ENDROOT
BRANCH   1  71
ATOM     71  CB  ALA A   7     145.432 169.143 183.002  0.00  0.00    -0.038 C 
ATOM     72  HB1 ALA A   7     144.515 168.605 183.260  0.00  0.00    +0.025 HD
ATOM     73  HB2 ALA A   7     145.156 170.042 182.442  0.00  0.00    +0.025 HD
ATOM     74  HB3 ALA A   7     146.010 168.511 182.319  0.00  0.00    +0.025 HD
ENDBRANCH   1  71
BRANCH  36  75
ATOM     75  CB  ALA A   3     148.937 173.462 192.226  0.00  0.00    -0.038 C 
ATOM     76  HB1 ALA A   3     148.513 173.302 193.225  0.00  0.00    +0.025 HD
ATOM     77  HB2 ALA A   3     148.612 174.450 191.884  0.00  0.00    +0.025 HD
ATOM     78  HB3 ALA A   3     150.028 173.476 192.328  0.00  0.00    +0.025 HD
ENDBRANCH  36  75
BRANCH  40  79
ATOM     79  C   UNK A   2     144.228 171.833 190.641  0.00  0.00    +0.005 C 
ATOM     80  H   UNK A   2     144.863 171.466 191.461  0.00  0.00    +0.032 HD
ATOM     81  H   UNK A   2     143.549 171.008 190.409  0.00  0.00    +0.032 HD
BRANCH  79  82
ATOM     82  C   UNK A   2     143.378 173.009 191.151  0.00  0.00    +0.088 C 
BRANCH  82  83
ATOM     83  C   UNK A   2     144.176 173.817 192.184  0.00  0.00    -0.034 C 
ATOM     84  H   UNK A   2     143.942 173.500 193.206  0.00  0.00    +0.026 HD
ATOM     85  H   UNK A   2     143.915 174.880 192.131  0.00  0.00    +0.026 HD
ATOM     86  H   UNK A   2     145.255 173.713 192.023  0.00  0.00    +0.026 HD
ENDBRANCH  82  83
BRANCH  82  87
ATOM     87  C   UNK A   2     142.038 172.534 191.756  0.00  0.00    +0.073 C 
ATOM     88  H   UNK A   2     142.141 171.574 192.271  0.00  0.00    +0.059 HD
ATOM     89  H   UNK A   2     141.263 172.456 190.989  0.00  0.00    +0.059 HD
BRANCH  87  90
ATOM     90  O   UNK A   2     141.582 173.525 192.687  0.00  0.00    -0.392 OA
ATOM     91  H   UNK A   2     142.369 173.793 193.197  0.00  0.00    +0.210 HD
ENDBRANCH  87  90
ENDBRANCH  82  87
BRANCH  82  92
ATOM     92  O   UNK A   2     143.082 173.896 190.056  0.00  0.00    -0.387 OA
ATOM     93  H   UNK A   2     142.196 173.601 189.750  0.00  0.00    +0.210 HD
ENDBRANCH  82  92
ENDBRANCH  79  82
ENDBRANCH  40  79
BRANCH  23  94
ATOM     94  OD  HYP A   6     145.099 164.293 185.809  0.00  0.00    -0.390 OA
ATOM     95  HD  HYP A   6     144.622 163.441 185.918  0.00  0.00    +0.210 HD
ENDBRANCH  23  94
BRANCH  32  96
ATOM     96  CB  THR A   4     151.288 168.378 191.308  0.00  0.00    +0.079 C 
ATOM     97  HB  THR A   4     151.258 167.585 190.550  0.00  0.00    +0.061 HD
BRANCH  96  98
ATOM     98  CG2 THR A   4     152.087 167.876 192.505  0.00  0.00    -0.037 C 
ATOM     99 HG21 THR A   4     152.472 168.719 193.091  0.00  0.00    +0.026 HD
ATOM    100 HG22 THR A   4     152.934 167.261 192.184  0.00  0.00    +0.026 HD
ATOM    101 HG23 THR A   4     151.456 167.289 193.181  0.00  0.00    +0.026 HD
ENDBRANCH  96  98
BRANCH  96 102
ATOM    102  OG1 THR A   4     152.001 169.484 190.716  0.00  0.00    -0.390 OA
ATOM    103  HG1 THR A   4     151.333 170.140 190.447  0.00  0.00    +0.210 HD
ENDBRANCH  96 102
ENDBRANCH  32  96
TORSDOF 12
ENDMDL
MODEL 4
REMARK VINA RESULT:      -5.4      5.385      8.144
REMARK  Name = Phalloidin_conf2
REMARK  12 active torsions:
REMARK  status: ('A' for Active; 'I' for Inactive)
REMARK    1  A    between atoms: CB_1  and  CA_2
REMARK    2  A    between atoms: CG_24  and  OD_30
REMARK    3  A    between atoms: CA_34  and  CB_53
REMARK    4  A    between atoms: CA_38  and  CB_52
REMARK    5  A    between atoms: C_42  and  C_46
REMARK    6  A    between atoms: C_46  and  C_47
REMARK    7  A    between atoms: C_47  and  C_48
REMARK    8  A    between atoms: C_47  and  C_49
REMARK    9  A    between atoms: C_47  and  O_51
REMARK   10  A    between atoms: C_49  and  O_50
REMARK   11  A    between atoms: CB_53  and  CG2_54
REMARK   12  A    between atoms: CB_53  and  OG1_55
REMARK                            x       y       z     vdW  Elec       q    Type
REMARK                         _______ _______ _______ _____ _____    ______ ____
ROOT
ATOM      1  CA  ALA A   7     138.140 171.205 188.064  0.00  0.00    +0.097 C 
ATOM      2  C   ALA A   7     138.928 172.323 188.773  0.00  0.00    +0.234 C 
ATOM      3  O   ALA A   7     139.967 172.755 188.268  0.00  0.00    -0.274 OA
ATOM      4  N   UNK A   1     138.460 172.845 189.951  0.00  0.00    -0.302 N 
ATOM      5  C   UNK A   1     139.329 173.632 190.855  0.00  0.00    +0.103 C 
ATOM      6  C   UNK A   1     140.483 172.758 191.408  0.00  0.00    +0.002 C 
ATOM      7  C   UNK A   1     141.684 173.456 191.978  0.00  0.00    -0.006 A 
ATOM      8  C   UNK A   5     143.009 173.232 191.646  0.00  0.00    +0.078 A 
ATOM      9  N   UNK A   5     143.799 174.041 192.407  0.00  0.00    -0.349 N 
ATOM     10  C   UNK A   5     143.030 174.797 193.256  0.00  0.00    +0.048 A 
ATOM     11  C   UNK A   5     143.416 175.749 194.208  0.00  0.00    -0.038 A 
ATOM     12  C   UNK A   5     142.409 176.356 194.962  0.00  0.00    -0.060 A 
ATOM     13  C   UNK A   5     141.073 176.015 194.774  0.00  0.00    -0.061 A 
ATOM     14  C   UNK A   5     140.707 175.062 193.815  0.00  0.00    -0.052 A 
ATOM     15  C   UNK A   5     141.700 174.439 193.029  0.00  0.00    +0.004 A 
ATOM     16  S   UNK A   5     143.815 172.127 190.578  0.00  0.00    -0.105 S 
ATOM     17  C   UNK A   5     143.253 172.715 188.949  0.00  0.00    +0.027 C 
ATOM     18  C   UNK A   5     143.680 171.841 187.760  0.00  0.00    +0.109 C 
ATOM     19  C   UNK A   5     142.517 170.947 187.250  0.00  0.00    +0.237 C 
ATOM     20  O   UNK A   5     141.754 171.322 186.351  0.00  0.00    -0.274 OA
ATOM     21  N   HYP A   6     142.310 169.712 187.830  0.00  0.00    -0.286 N 
ATOM     22  CD  HYP A   6     143.216 168.983 188.709  0.00  0.00    +0.042 C 
ATOM     23  CG  HYP A   6     142.500 167.669 189.037  0.00  0.00    +0.073 C 
ATOM     24  CB  HYP A   6     141.523 167.474 187.881  0.00  0.00    +0.002 C 
ATOM     25  CA  HYP A   6     141.155 168.896 187.451  0.00  0.00    +0.105 C 
ATOM     26  C   HYP A   6     139.920 169.441 188.203  0.00  0.00    +0.234 C 
ATOM     27  O   HYP A   6     139.712 169.194 189.390  0.00  0.00    -0.274 OA
ATOM     28  N   ALA A   7     139.169 170.338 187.473  0.00  0.00    -0.303 N 
ATOM     29  N   UNK A   5     144.037 172.721 186.641  0.00  0.00    -0.302 N 
ATOM     30  C   THR A   4     145.248 172.698 186.000  0.00  0.00    +0.237 C 
ATOM     31  O   THR A   4     146.125 171.879 186.274  0.00  0.00    -0.274 OA
ATOM     32  CA  THR A   4     145.402 173.693 184.829  0.00  0.00    +0.125 C 
ATOM     33  N   THR A   4     144.348 174.710 184.803  0.00  0.00    -0.300 N 
ATOM     34  C   ALA A   3     144.377 175.851 185.569  0.00  0.00    +0.234 C 
ATOM     35  O   ALA A   3     145.296 176.111 186.343  0.00  0.00    -0.274 OA
ATOM     36  CA  ALA A   3     143.129 176.746 185.409  0.00  0.00    +0.097 C 
ATOM     37  N   ALA A   3     142.514 176.933 186.712  0.00  0.00    -0.303 N 
ATOM     38  C   UNK A   2     141.842 175.910 187.333  0.00  0.00    +0.234 C 
ATOM     39  O   UNK A   2     141.736 174.800 186.810  0.00  0.00    -0.274 OA
ATOM     40  C   UNK A   2     141.244 176.251 188.724  0.00  0.00    +0.102 C 
ATOM     41  N   UNK A   2     140.574 175.057 189.229  0.00  0.00    -0.302 N 
ATOM     42  C   UNK A   1     139.758 175.032 190.326  0.00  0.00    +0.234 C 
ATOM     43  O   UNK A   1     139.433 176.066 190.914  0.00  0.00    -0.274 OA
ATOM     44  HA  ALA A   7     137.629 171.675 187.216  0.00  0.00    +0.059 HD
ATOM     45  H   UNK A   1     137.590 172.504 190.336  0.00  0.00    +0.150 HD
ATOM     46  H   UNK A   1     138.669 173.858 191.703  0.00  0.00    +0.060 HD
ATOM     47  H   UNK A   1     140.814 172.049 190.643  0.00  0.00    +0.034 HD
ATOM     48  H   UNK A   1     140.067 172.116 192.198  0.00  0.00    +0.034 HD
ATOM     49  H   UNK A   5     144.807 174.057 192.363  0.00  0.00    +0.166 HD
ATOM     50  H   UNK A   5     144.459 176.001 194.365  0.00  0.00    +0.064 HD
ATOM     51  H   UNK A   5     142.675 177.096 195.713  0.00  0.00    +0.062 HD
ATOM     52  H   UNK A   5     140.303 176.494 195.374  0.00  0.00    +0.062 HD
ATOM     53  H   UNK A   5     139.658 174.815 193.684  0.00  0.00    +0.062 HD
ATOM     54  H   UNK A   5     142.173 172.798 188.979  0.00  0.00    +0.040 HD
ATOM     55  H   UNK A   5     143.659 173.728 188.839  0.00  0.00    +0.040 HD
ATOM     56  H   UNK A   5     144.547 171.219 188.000  0.00  0.00    +0.060 HD
ATOM     57  HD1 HYP A   6     143.433 169.563 189.603  0.00  0.00    +0.049 HD
ATOM     58  HD2 HYP A   6     144.140 168.806 188.149  0.00  0.00    +0.049 HD
ATOM     59  HG  HYP A   6     143.210 166.840 189.115  0.00  0.00    +0.061 HD
ATOM     60  HB1 HYP A   6     140.649 166.874 188.154  0.00  0.00    +0.031 HD
ATOM     61  HB2 HYP A   6     142.044 166.977 187.053  0.00  0.00    +0.031 HD
ATOM     62  HA  HYP A   6     140.978 168.946 186.372  0.00  0.00    +0.060 HD
ATOM     63  H   ALA A   7     139.641 170.723 186.654  0.00  0.00    +0.149 HD
ATOM     64  H   UNK A   5     143.307 173.347 186.297  0.00  0.00    +0.150 HD
ATOM     65  HA  THR A   4     146.359 174.202 184.991  0.00  0.00    +0.062 HD
ATOM     66  H   THR A   4     143.603 174.545 184.135  0.00  0.00    +0.150 HD
ATOM     67  HA  ALA A   3     142.398 176.249 184.762  0.00  0.00    +0.059 HD
ATOM     68  H   ALA A   3     142.681 177.795 187.236  0.00  0.00    +0.149 HD
ATOM     69  H   UNK A   2     140.472 177.014 188.581  0.00  0.00    +0.060 HD
ATOM     70  H   UNK A   2     140.626 174.214 188.647  0.00  0.00    +0.150 HD
ENDROOT
BRANCH   1  71
ATOM     71  CB  ALA A   7     137.107 170.465 188.899  0.00  0.00    -0.038 C 
ATOM     72  HB1 ALA A   7     136.396 171.163 189.351  0.00  0.00    +0.025 HD
ATOM     73  HB2 ALA A   7     136.541 169.732 188.315  0.00  0.00    +0.025 HD
ATOM     74  HB3 ALA A   7     137.597 169.915 189.709  0.00  0.00    +0.025 HD
ENDBRANCH   1  71
BRANCH  36  75
ATOM     75  CB  ALA A   3     143.525 178.076 184.787  0.00  0.00    -0.038 C 
ATOM     76  HB1 ALA A   3     143.476 178.899 185.511  0.00  0.00    +0.025 HD
ATOM     77  HB2 ALA A   3     142.858 178.331 183.955  0.00  0.00    +0.025 HD
ATOM     78  HB3 ALA A   3     144.550 178.033 184.403  0.00  0.00    +0.025 HD
ENDBRANCH  36  75
BRANCH  40  79
ATOM     79  C   UNK A   2     142.353 176.702 189.694  0.00  0.00    +0.005 C 
ATOM     80  H   UNK A   2     143.327 176.593 189.196  0.00  0.00    +0.032 HD
ATOM     81  H   UNK A   2     142.399 176.047 190.569  0.00  0.00    +0.032 HD
BRANCH  79  82
ATOM     82  C   UNK A   2     142.205 178.147 190.199  0.00  0.00    +0.088 C 
BRANCH  82  83
ATOM     83  C   UNK A   2     141.019 178.823 189.494  0.00  0.00    -0.034 C 
ATOM     84  H   UNK A   2     141.224 178.980 188.429  0.00  0.00    +0.026 HD
ATOM     85  H   UNK A   2     140.835 179.819 189.914  0.00  0.00    +0.026 HD
ATOM     86  H   UNK A   2     140.106 178.228 189.591  0.00  0.00    +0.026 HD
ENDBRANCH  82  83
BRANCH  82  87
ATOM     87  C   UNK A   2     143.496 178.968 189.989  0.00  0.00    +0.073 C 
ATOM     88  H   UNK A   2     144.209 178.822 190.806  0.00  0.00    +0.059 HD
ATOM     89  H   UNK A   2     143.275 180.033 189.883  0.00  0.00    +0.059 HD
BRANCH  87  90
ATOM     90  O   UNK A   2     144.101 178.559 188.754  0.00  0.00    -0.392 OA
ATOM     91  H   UNK A   2     145.061 178.534 188.924  0.00  0.00    +0.210 HD
ENDBRANCH  87  90
ENDBRANCH  82  87
BRANCH  82  92
ATOM     92  O   UNK A   2     141.909 178.135 191.608  0.00  0.00    -0.387 OA
ATOM     93  H   UNK A   2     142.496 178.833 191.975  0.00  0.00    +0.210 HD
ENDBRANCH  82  92
ENDBRANCH  79  82
ENDBRANCH  40  79
BRANCH  23  94
ATOM     94  OD  HYP A   6     141.815 167.740 190.283  0.00  0.00    -0.390 OA
ATOM     95  HD  HYP A   6     141.988 168.615 190.695  0.00  0.00    +0.210 HD
ENDBRANCH  23  94
BRANCH  32  96
ATOM     96  CB  THR A   4     145.414 172.879 183.510  0.00  0.00    +0.079 C 
ATOM     97  HB  THR A   4     146.439 172.640 183.200  0.00  0.00    +0.061 HD
BRANCH  96  98
ATOM     98  CG2 THR A   4     144.730 173.641 182.381  0.00  0.00    -0.037 C 
ATOM     99 HG21 THR A   4     143.925 173.039 181.944  0.00  0.00    +0.026 HD
ATOM    100 HG22 THR A   4     145.442 173.895 181.590  0.00  0.00    +0.026 HD
ATOM    101 HG23 THR A   4     144.265 174.561 182.753  0.00  0.00    +0.026 HD
ENDBRANCH  96  98
BRANCH  96 102
ATOM    102  OG1 THR A   4     144.734 171.618 183.686  0.00  0.00    -0.390 OA
ATOM    103  HG1 THR A   4     143.822 171.740 183.369  0.00  0.00    +0.210 HD
ENDBRANCH  96 102
ENDBRANCH  32  96
TORSDOF 12
ENDMDL
MODEL 5
REMARK VINA RESULT:      -5.3      4.972      9.617
REMARK  Name = Phalloidin_conf2
REMARK  12 active torsions:
REMARK  status: ('A' for Active; 'I' for Inactive)
REMARK    1  A    between atoms: CB_1  and  CA_2
REMARK    2  A    between atoms: CG_24  and  OD_30
REMARK    3  A    between atoms: CA_34  and  CB_53
REMARK    4  A    between atoms: CA_38  and  CB_52
REMARK    5  A    between atoms: C_42  and  C_46
REMARK    6  A    between atoms: C_46  and  C_47
REMARK    7  A    between atoms: C_47  and  C_48
REMARK    8  A    between atoms: C_47  and  C_49
REMARK    9  A    between atoms: C_47  and  O_51
REMARK   10  A    between atoms: C_49  and  O_50
REMARK   11  A    between atoms: CB_53  and  CG2_54
REMARK   12  A    between atoms: CB_53  and  OG1_55
REMARK                            x       y       z     vdW  Elec       q    Type
REMARK                         _______ _______ _______ _____ _____    ______ ____
ROOT
ATOM      1  CA  ALA A   7     155.296 166.739 185.279  0.00  0.00    +0.097 C 
ATOM      2  C   ALA A   7     153.957 165.980 185.207  0.00  0.00    +0.234 C 
ATOM      3  O   ALA A   7     153.120 166.131 186.100  0.00  0.00    -0.274 OA
ATOM      4  N   UNK A   1     153.695 165.159 184.141  0.00  0.00    -0.302 N 
ATOM      5  C   UNK A   1     152.623 164.139 184.189  0.00  0.00    +0.103 C 
ATOM      6  C   UNK A   1     152.932 163.066 185.263  0.00  0.00    +0.002 C 
ATOM      7  C   UNK A   1     151.797 162.215 185.754  0.00  0.00    -0.006 A 
ATOM      8  C   UNK A   5     151.435 161.994 187.072  0.00  0.00    +0.078 A 
ATOM      9  N   UNK A   5     150.375 161.137 187.103  0.00  0.00    -0.349 N 
ATOM     10  C   UNK A   5     150.025 160.765 185.829  0.00  0.00    +0.048 A 
ATOM     11  C   UNK A   5     149.009 159.906 185.392  0.00  0.00    -0.038 A 
ATOM     12  C   UNK A   5     148.894 159.685 184.017  0.00  0.00    -0.060 A 
ATOM     13  C   UNK A   5     149.767 160.294 183.122  0.00  0.00    -0.061 A 
ATOM     14  C   UNK A   5     150.776 161.152 183.578  0.00  0.00    -0.052 A 
ATOM     15  C   UNK A   5     150.911 161.405 184.959  0.00  0.00    +0.004 A 
ATOM     16  S   UNK A   5     152.082 162.496 188.602  0.00  0.00    -0.105 S 
ATOM     17  C   UNK A   5     151.770 164.290 188.561  0.00  0.00    +0.027 C 
ATOM     18  C   UNK A   5     152.369 165.079 189.735  0.00  0.00    +0.109 C 
ATOM     19  C   UNK A   5     153.666 165.830 189.328  0.00  0.00    +0.237 C 
ATOM     20  O   UNK A   5     153.640 166.995 188.911  0.00  0.00    -0.274 OA
ATOM     21  N   HYP A   6     154.878 165.176 189.408  0.00  0.00    -0.286 N 
ATOM     22  CD  HYP A   6     155.164 163.919 190.089  0.00  0.00    +0.042 C 
ATOM     23  CG  HYP A   6     156.661 163.671 189.880  0.00  0.00    +0.073 C 
ATOM     24  CB  HYP A   6     157.239 165.057 189.613  0.00  0.00    +0.002 C 
ATOM     25  CA  HYP A   6     156.103 165.816 188.924  0.00  0.00    +0.105 C 
ATOM     26  C   HYP A   6     156.141 165.670 187.387  0.00  0.00    +0.234 C 
ATOM     27  O   HYP A   6     156.465 164.621 186.834  0.00  0.00    -0.274 OA
ATOM     28  N   ALA A   7     155.639 166.760 186.707  0.00  0.00    -0.303 N 
ATOM     29  N   UNK A   5     151.409 166.115 190.136  0.00  0.00    -0.302 N 
ATOM     30  C   THR A   4     150.910 166.252 191.405  0.00  0.00    +0.237 C 
ATOM     31  O   THR A   4     151.282 165.546 192.341  0.00  0.00    -0.274 OA
ATOM     32  CA  THR A   4     149.931 167.429 191.613  0.00  0.00    +0.125 C 
ATOM     33  N   THR A   4     149.457 168.005 190.353  0.00  0.00    -0.300 N 
ATOM     34  C   ALA A   3     148.419 167.478 189.622  0.00  0.00    +0.234 C 
ATOM     35  O   ALA A   3     147.801 166.472 189.969  0.00  0.00    -0.274 OA
ATOM     36  CA  ALA A   3     148.135 168.229 188.303  0.00  0.00    +0.097 C 
ATOM     37  N   ALA A   3     148.241 167.292 187.197  0.00  0.00    -0.303 N 
ATOM     38  C   UNK A   2     149.458 166.806 186.791  0.00  0.00    +0.234 C 
ATOM     39  O   UNK A   2     150.502 167.144 187.349  0.00  0.00    -0.274 OA
ATOM     40  C   UNK A   2     149.417 165.808 185.604  0.00  0.00    +0.102 C 
ATOM     41  N   UNK A   2     150.788 165.399 185.315  0.00  0.00    -0.302 N 
ATOM     42  C   UNK A   1     151.168 164.691 184.207  0.00  0.00    +0.234 C 
ATOM     43  O   UNK A   1     150.376 164.440 183.296  0.00  0.00    -0.274 OA
ATOM     44  HA  ALA A   7     155.078 167.780 185.012  0.00  0.00    +0.059 HD
ATOM     45  H   UNK A   1     154.377 165.072 183.400  0.00  0.00    +0.150 HD
ATOM     46  H   UNK A   1     152.708 163.642 183.213  0.00  0.00    +0.060 HD
ATOM     47  H   UNK A   1     153.426 163.529 186.123  0.00  0.00    +0.034 HD
ATOM     48  H   UNK A   1     153.698 162.392 184.853  0.00  0.00    +0.034 HD
ATOM     49  H   UNK A   5     149.932 160.809 187.948  0.00  0.00    +0.166 HD
ATOM     50  H   UNK A   5     148.340 159.419 186.093  0.00  0.00    +0.064 HD
ATOM     51  H   UNK A   5     148.119 159.019 183.645  0.00  0.00    +0.062 HD
ATOM     52  H   UNK A   5     149.666 160.106 182.055  0.00  0.00    +0.062 HD
ATOM     53  H   UNK A   5     151.443 161.618 182.859  0.00  0.00    +0.062 HD
ATOM     54  H   UNK A   5     152.154 164.674 187.623  0.00  0.00    +0.040 HD
ATOM     55  H   UNK A   5     150.680 164.404 188.544  0.00  0.00    +0.040 HD
ATOM     56  H   UNK A   5     152.567 164.440 190.600  0.00  0.00    +0.060 HD
ATOM     57  HD1 HYP A   6     154.556 163.115 189.683  0.00  0.00    +0.049 HD
ATOM     58  HD2 HYP A   6     154.927 164.063 191.149  0.00  0.00    +0.049 HD
ATOM     59  HG  HYP A   6     157.111 163.203 190.761  0.00  0.00    +0.061 HD
ATOM     60  HB1 HYP A   6     158.156 165.032 189.016  0.00  0.00    +0.031 HD
ATOM     61  HB2 HYP A   6     157.460 165.542 190.572  0.00  0.00    +0.031 HD
ATOM     62  HA  HYP A   6     156.121 166.877 189.192  0.00  0.00    +0.060 HD
ATOM     63  H   ALA A   7     155.082 167.399 187.276  0.00  0.00    +0.149 HD
ATOM     64  H   UNK A   5     151.147 166.800 189.424  0.00  0.00    +0.150 HD
ATOM     65  HA  THR A   4     149.066 167.010 192.141  0.00  0.00    +0.062 HD
ATOM     66  H   THR A   4     149.915 168.864 190.069  0.00  0.00    +0.150 HD
ATOM     67  HA  ALA A   3     148.889 169.010 188.153  0.00  0.00    +0.059 HD
ATOM     68  H   ALA A   3     147.394 166.891 186.786  0.00  0.00    +0.149 HD
ATOM     69  H   UNK A   2     149.052 166.347 184.723  0.00  0.00    +0.060 HD
ATOM     70  H   UNK A   2     151.523 165.776 185.921  0.00  0.00    +0.150 HD
ENDROOT
BRANCH   1  71
ATOM     71  CB  ALA A   7     156.413 166.235 184.377  0.00  0.00    -0.038 C 
ATOM     72  HB1 ALA A   7     157.147 167.023 184.185  0.00  0.00    +0.025 HD
ATOM     73  HB2 ALA A   7     156.939 165.374 184.801  0.00  0.00    +0.025 HD
ATOM     74  HB3 ALA A   7     156.006 165.914 183.412  0.00  0.00    +0.025 HD
ENDBRANCH   1  71
BRANCH  36  75
ATOM     75  CB  ALA A   3     146.756 168.868 188.359  0.00  0.00    -0.038 C 
ATOM     76  HB1 ALA A   3     146.334 168.845 189.371  0.00  0.00    +0.025 HD
ATOM     77  HB2 ALA A   3     146.057 168.342 187.699  0.00  0.00    +0.025 HD
ATOM     78  HB3 ALA A   3     146.804 169.915 188.043  0.00  0.00    +0.025 HD
ENDBRANCH  36  75
BRANCH  40  79
ATOM     79  C   UNK A   2     148.549 164.584 185.954  0.00  0.00    +0.005 C 
ATOM     80  H   UNK A   2     148.262 164.645 187.014  0.00  0.00    +0.032 HD
ATOM     81  H   UNK A   2     149.122 163.657 185.861  0.00  0.00    +0.032 HD
BRANCH  79  82
ATOM     82  C   UNK A   2     147.281 164.440 185.096  0.00  0.00    +0.088 C 
BRANCH  82  83
ATOM     83  C   UNK A   2     147.281 163.072 184.399  0.00  0.00    -0.034 C 
ATOM     84  H   UNK A   2     146.375 162.930 183.798  0.00  0.00    +0.026 HD
ATOM     85  H   UNK A   2     147.282 162.260 185.136  0.00  0.00    +0.026 HD
ATOM     86  H   UNK A   2     148.155 162.955 183.749  0.00  0.00    +0.026 HD
ENDBRANCH  82  83
BRANCH  82  87
ATOM     87  C   UNK A   2     147.154 165.575 184.056  0.00  0.00    +0.073 C 
ATOM     88  H   UNK A   2     147.802 166.423 184.298  0.00  0.00    +0.059 HD
ATOM     89  H   UNK A   2     146.120 165.918 183.969  0.00  0.00    +0.059 HD
BRANCH  87  90
ATOM     90  O   UNK A   2     147.515 165.056 182.769  0.00  0.00    -0.392 OA
ATOM     91  H   UNK A   2     148.371 165.467 182.546  0.00  0.00    +0.210 HD
ENDBRANCH  87  90
ENDBRANCH  82  87
BRANCH  82  92
ATOM     92  O   UNK A   2     146.119 164.483 185.946  0.00  0.00    -0.387 OA
ATOM     93  H   UNK A   2     145.632 163.662 185.715  0.00  0.00    +0.210 HD
ENDBRANCH  82  92
ENDBRANCH  79  82
ENDBRANCH  40  79
BRANCH  23  94
ATOM     94  OD  HYP A   6     156.900 162.793 188.784  0.00  0.00    -0.390 OA
ATOM     95  HD  HYP A   6     157.305 161.963 189.121  0.00  0.00    +0.210 HD
ENDBRANCH  23  94
BRANCH  32  96
ATOM     96  CB  THR A   4     150.650 168.500 192.472  0.00  0.00    +0.079 C 
ATOM     97  HB  THR A   4     150.426 168.369 193.539  0.00  0.00    +0.061 HD
BRANCH  96  98
ATOM     98  CG2 THR A   4     150.240 169.909 192.059  0.00  0.00    -0.037 C 
ATOM     99 HG21 THR A   4     151.102 170.585 192.096  0.00  0.00    +0.026 HD
ATOM    100 HG22 THR A   4     149.462 170.302 192.720  0.00  0.00    +0.026 HD
ATOM    101 HG23 THR A   4     149.875 169.925 191.026  0.00  0.00    +0.026 HD
ENDBRANCH  96  98
BRANCH  96 102
ATOM    102  OG1 THR A   4     152.082 168.382 192.337  0.00  0.00    -0.390 OA
ATOM    103  HG1 THR A   4     152.466 169.220 192.651  0.00  0.00    +0.210 HD
ENDBRANCH  96 102
ENDBRANCH  32  96
TORSDOF 12
ENDMDL
MODEL 6
REMARK VINA RESULT:      -5.1      2.477      7.179
REMARK  Name = Phalloidin_conf2
REMARK  12 active torsions:
REMARK  status: ('A' for Active; 'I' for Inactive)
REMARK    1  A    between atoms: CB_1  and  CA_2
REMARK    2  A    between atoms: CG_24  and  OD_30
REMARK    3  A    between atoms: CA_34  and  CB_53
REMARK    4  A    between atoms: CA_38  and  CB_52
REMARK    5  A    between atoms: C_42  and  C_46
REMARK    6  A    between atoms: C_46  and  C_47
REMARK    7  A    between atoms: C_47  and  C_48
REMARK    8  A    between atoms: C_47  and  C_49
REMARK    9  A    between atoms: C_47  and  O_51
REMARK   10  A    between atoms: C_49  and  O_50
REMARK   11  A    between atoms: CB_53  and  CG2_54
REMARK   12  A    between atoms: CB_53  and  OG1_55
REMARK                            x       y       z     vdW  Elec       q    Type
REMARK                         _______ _______ _______ _____ _____    ______ ____
ROOT
ATOM      1  CA  ALA A   7     151.107 167.630 190.807  0.00  0.00    +0.097 C 
ATOM      2  C   ALA A   7     150.235 167.205 189.610  0.00  0.00    +0.234 C 
ATOM      3  O   ALA A   7     149.145 167.750 189.424  0.00  0.00    -0.274 OA
ATOM      4  N   UNK A   1     150.686 166.240 188.747  0.00  0.00    -0.302 N 
ATOM      5  C   UNK A   1     149.772 165.535 187.820  0.00  0.00    +0.103 C 
ATOM      6  C   UNK A   1     148.727 164.703 188.606  0.00  0.00    +0.002 C 
ATOM      7  C   UNK A   1     147.481 164.276 187.885  0.00  0.00    -0.006 A 
ATOM      8  C   UNK A   5     146.175 164.459 188.304  0.00  0.00    +0.078 A 
ATOM      9  N   UNK A   5     145.333 163.902 187.389  0.00  0.00    -0.349 N 
ATOM     10  C   UNK A   5     146.049 163.333 186.366  0.00  0.00    +0.048 A 
ATOM     11  C   UNK A   5     145.601 162.653 185.227  0.00  0.00    -0.038 A 
ATOM     12  C   UNK A   5     146.567 162.149 184.352  0.00  0.00    -0.060 A 
ATOM     13  C   UNK A   5     147.923 162.313 184.614  0.00  0.00    -0.061 A 
ATOM     14  C   UNK A   5     148.352 162.998 185.759  0.00  0.00    -0.052 A 
ATOM     15  C   UNK A   5     147.401 163.529 186.656  0.00  0.00    +0.004 A 
ATOM     16  S   UNK A   5     145.449 165.143 189.724  0.00  0.00    -0.105 S 
ATOM     17  C   UNK A   5     145.900 166.899 189.559  0.00  0.00    +0.027 C 
ATOM     18  C   UNK A   5     145.525 167.782 190.759  0.00  0.00    +0.109 C 
ATOM     19  C   UNK A   5     146.755 168.097 191.654  0.00  0.00    +0.237 C 
ATOM     20  O   UNK A   5     147.449 169.105 191.475  0.00  0.00    -0.274 OA
ATOM     21  N   HYP A   6     147.099 167.218 192.661  0.00  0.00    -0.286 N 
ATOM     22  CD  HYP A   6     146.297 166.125 193.196  0.00  0.00    +0.042 C 
ATOM     23  CG  HYP A   6     147.148 165.496 194.303  0.00  0.00    +0.073 C 
ATOM     24  CB  HYP A   6     148.103 166.609 194.722  0.00  0.00    +0.002 C 
ATOM     25  CA  HYP A   6     148.317 167.427 193.447  0.00  0.00    +0.105 C 
ATOM     26  C   HYP A   6     149.514 166.920 192.613  0.00  0.00    +0.234 C 
ATOM     27  O   HYP A   6     149.782 165.724 192.505  0.00  0.00    -0.274 OA
ATOM     28  N   ALA A   7     150.151 167.906 191.888  0.00  0.00    -0.303 N 
ATOM     29  N   UNK A   5     145.050 169.075 190.253  0.00  0.00    -0.302 N 
ATOM     30  C   THR A   4     143.828 169.617 190.555  0.00  0.00    +0.237 C 
ATOM     31  O   THR A   4     143.044 169.084 191.340  0.00  0.00    -0.274 OA
ATOM     32  CA  THR A   4     143.541 171.003 189.935  0.00  0.00    +0.125 C 
ATOM     33  N   THR A   4     144.489 171.361 188.878  0.00  0.00    -0.300 N 
ATOM     34  C   ALA A   3     144.371 170.931 187.578  0.00  0.00    +0.234 C 
ATOM     35  O   ALA A   3     143.455 170.206 187.195  0.00  0.00    -0.274 OA
ATOM     36  CA  ALA A   3     145.519 171.397 186.656  0.00  0.00    +0.097 C 
ATOM     37  N   ALA A   3     146.153 170.229 186.068  0.00  0.00    -0.303 N 
ATOM     38  C   UNK A   2     146.941 169.394 186.819  0.00  0.00    +0.234 C 
ATOM     39  O   UNK A   2     147.139 169.603 188.016  0.00  0.00    -0.274 OA
ATOM     40  C   UNK A   2     147.545 168.183 186.060  0.00  0.00    +0.102 C 
ATOM     41  N   UNK A   2     148.344 167.413 187.009  0.00  0.00    -0.302 N 
ATOM     42  C   UNK A   1     149.192 166.397 186.661  0.00  0.00    +0.234 C 
ATOM     43  O   UNK A   1     149.432 166.129 185.482  0.00  0.00    -0.274 OA
ATOM     44  HA  ALA A   7     151.544 168.601 190.545  0.00  0.00    +0.059 HD
ATOM     45  H   UNK A   1     151.597 165.827 188.893  0.00  0.00    +0.150 HD
ATOM     46  H   UNK A   1     150.432 164.818 187.315  0.00  0.00    +0.060 HD
ATOM     47  H   UNK A   1     148.444 165.228 189.523  0.00  0.00    +0.034 HD
ATOM     48  H   UNK A   1     149.228 163.793 188.969  0.00  0.00    +0.034 HD
ATOM     49  H   UNK A   5     144.327 163.892 187.472  0.00  0.00    +0.166 HD
ATOM     50  H   UNK A   5     144.544 162.512 185.032  0.00  0.00    +0.064 HD
ATOM     51  H   UNK A   5     146.252 161.611 183.460  0.00  0.00    +0.062 HD
ATOM     52  H   UNK A   5     148.660 161.908 183.925  0.00  0.00    +0.062 HD
ATOM     53  H   UNK A   5     149.415 163.116 185.941  0.00  0.00    +0.062 HD
ATOM     54  H   UNK A   5     146.968 166.954 189.378  0.00  0.00    +0.040 HD
ATOM     55  H   UNK A   5     145.394 167.255 188.653  0.00  0.00    +0.040 HD
ATOM     56  H   UNK A   5     144.731 167.335 191.363  0.00  0.00    +0.060 HD
ATOM     57  HD1 HYP A   6     146.051 165.410 192.415  0.00  0.00    +0.049 HD
ATOM     58  HD2 HYP A   6     145.378 166.564 193.599  0.00  0.00    +0.049 HD
ATOM     59  HG  HYP A   6     146.526 165.157 195.137  0.00  0.00    +0.061 HD
ATOM     60  HB1 HYP A   6     149.040 166.234 195.148  0.00  0.00    +0.031 HD
ATOM     61  HB2 HYP A   6     147.609 167.242 195.470  0.00  0.00    +0.031 HD
ATOM     62  HA  HYP A   6     148.455 168.488 193.679  0.00  0.00    +0.060 HD
ATOM     63  H   ALA A   7     149.619 168.771 191.785  0.00  0.00    +0.149 HD
ATOM     64  H   UNK A   5     145.704 169.616 189.684  0.00  0.00    +0.150 HD
ATOM     65  HA  THR A   4     142.544 170.931 189.486  0.00  0.00    +0.062 HD
ATOM     66  H   THR A   4     145.226 172.000 189.155  0.00  0.00    +0.150 HD
ATOM     67  HA  ALA A   3     146.276 171.926 187.247  0.00  0.00    +0.059 HD
ATOM     68  H   ALA A   3     145.918 169.949 185.112  0.00  0.00    +0.149 HD
ATOM     69  H   UNK A   2     148.233 168.569 185.302  0.00  0.00    +0.060 HD
ATOM     70  H   UNK A   2     148.357 167.741 187.979  0.00  0.00    +0.150 HD
ENDROOT
BRANCH   1  71
ATOM     71  CB  ALA A   7     152.234 166.686 191.198  0.00  0.00    -0.038 C 
ATOM     72  HB1 ALA A   7     152.525 166.053 190.354  0.00  0.00    +0.025 HD
ATOM     73  HB2 ALA A   7     153.124 167.216 191.552  0.00  0.00    +0.025 HD
ATOM     74  HB3 ALA A   7     151.913 166.028 192.013  0.00  0.00    +0.025 HD
ENDBRANCH   1  71
BRANCH  36  75
ATOM     75  CB  ALA A   3     144.977 172.331 185.587  0.00  0.00    -0.038 C 
ATOM     76  HB1 ALA A   3     145.780 172.830 185.031  0.00  0.00    +0.025 HD
ATOM     77  HB2 ALA A   3     144.351 173.112 186.033  0.00  0.00    +0.025 HD
ATOM     78  HB3 ALA A   3     144.369 171.777 184.863  0.00  0.00    +0.025 HD
ENDBRANCH  36  75
BRANCH  40  79
ATOM     79  C   UNK A   2     146.427 167.309 185.458  0.00  0.00    +0.005 C 
ATOM     80  H   UNK A   2     145.474 167.570 185.941  0.00  0.00    +0.032 HD
ATOM     81  H   UNK A   2     146.590 166.252 185.686  0.00  0.00    +0.032 HD
BRANCH  79  82
ATOM     82  C   UNK A   2     146.272 167.441 183.934  0.00  0.00    +0.088 C 
BRANCH  82  83
ATOM     83  C   UNK A   2     144.815 167.781 183.589  0.00  0.00    -0.034 C 
ATOM     84  H   UNK A   2     144.719 168.814 183.236  0.00  0.00    +0.026 HD
ATOM     85  H   UNK A   2     144.178 167.707 184.478  0.00  0.00    +0.026 HD
ATOM     86  H   UNK A   2     144.420 167.109 182.819  0.00  0.00    +0.026 HD
ENDBRANCH  82  83
BRANCH  82  87
ATOM     87  C   UNK A   2     146.715 166.159 183.195  0.00  0.00    +0.073 C 
ATOM     88  H   UNK A   2     146.228 166.061 182.220  0.00  0.00    +0.059 HD
ATOM     89  H   UNK A   2     146.515 165.267 183.794  0.00  0.00    +0.059 HD
BRANCH  87  90
ATOM     90  O   UNK A   2     148.137 166.207 183.011  0.00  0.00    -0.392 OA
ATOM     91  H   UNK A   2     148.416 167.088 183.324  0.00  0.00    +0.210 HD
ENDBRANCH  87  90
ENDBRANCH  82  87
BRANCH  82  92
ATOM     92  O   UNK A   2     147.085 168.531 183.461  0.00  0.00    -0.387 OA
ATOM     93  H   UNK A   2     148.005 168.208 183.591  0.00  0.00    +0.210 HD
ENDBRANCH  82  92
ENDBRANCH  79  82
ENDBRANCH  40  79
BRANCH  23  94
ATOM     94  OD  HYP A   6     147.861 164.355 193.835  0.00  0.00    -0.390 OA
ATOM     95  HD  HYP A   6     147.585 163.569 194.356  0.00  0.00    +0.210 HD
ENDBRANCH  23  94
BRANCH  32  96
ATOM     96  CB  THR A   4     143.569 172.050 191.078  0.00  0.00    +0.079 C 
ATOM     97  HB  THR A   4     143.038 171.683 191.966  0.00  0.00    +0.061 HD
BRANCH  96  98
ATOM     98  CG2 THR A   4     142.934 173.366 190.640  0.00  0.00    -0.037 C 
ATOM     99 HG21 THR A   4     143.505 174.216 191.031  0.00  0.00    +0.026 HD
ATOM    100 HG22 THR A   4     141.904 173.444 191.001  0.00  0.00    +0.026 HD
ATOM    101 HG23 THR A   4     142.939 173.461 189.549  0.00  0.00    +0.026 HD
ENDBRANCH  96  98
BRANCH  96 102
ATOM    102  OG1 THR A   4     144.926 172.314 191.492  0.00  0.00    -0.390 OA
ATOM    103  HG1 THR A   4     144.968 173.253 191.745  0.00  0.00    +0.210 HD
ENDBRANCH  96 102
ENDBRANCH  32  96
TORSDOF 12
ENDMDL
MODEL 7
REMARK VINA RESULT:      -5.1      2.701      6.314
REMARK  Name = Phalloidin_conf2
REMARK  12 active torsions:
REMARK  status: ('A' for Active; 'I' for Inactive)
REMARK    1  A    between atoms: CB_1  and  CA_2
REMARK    2  A    between atoms: CG_24  and  OD_30
REMARK    3  A    between atoms: CA_34  and  CB_53
REMARK    4  A    between atoms: CA_38  and  CB_52
REMARK    5  A    between atoms: C_42  and  C_46
REMARK    6  A    between atoms: C_46  and  C_47
REMARK    7  A    between atoms: C_47  and  C_48
REMARK    8  A    between atoms: C_47  and  C_49
REMARK    9  A    between atoms: C_47  and  O_51
REMARK   10  A    between atoms: C_49  and  O_50
REMARK   11  A    between atoms: CB_53  and  CG2_54
REMARK   12  A    between atoms: CB_53  and  OG1_55
REMARK                            x       y       z     vdW  Elec       q    Type
REMARK                         _______ _______ _______ _____ _____    ______ ____
ROOT
ATOM      1  CA  ALA A   7     146.315 170.862 185.352  0.00  0.00    +0.097 C 
ATOM      2  C   ALA A   7     146.273 170.097 186.689  0.00  0.00    +0.234 C 
ATOM      3  O   ALA A   7     147.034 169.144 186.872  0.00  0.00    -0.274 OA
ATOM      4  N   UNK A   1     145.406 170.493 187.674  0.00  0.00    -0.302 N 
ATOM      5  C   UNK A   1     145.053 169.605 188.805  0.00  0.00    +0.103 C 
ATOM      6  C   UNK A   1     144.305 168.345 188.302  0.00  0.00    +0.002 C 
ATOM      7  C   UNK A   1     144.248 167.151 189.211  0.00  0.00    -0.006 A 
ATOM      8  C   UNK A   5     144.594 165.849 188.895  0.00  0.00    +0.078 A 
ATOM      9  N   UNK A   5     144.370 165.054 189.979  0.00  0.00    -0.349 N 
ATOM     10  C   UNK A   5     143.864 165.796 191.017  0.00  0.00    +0.048 A 
ATOM     11  C   UNK A   5     143.487 165.396 192.305  0.00  0.00    -0.038 A 
ATOM     12  C   UNK A   5     142.973 166.372 193.162  0.00  0.00    -0.060 A 
ATOM     13  C   UNK A   5     142.835 167.690 192.741  0.00  0.00    -0.061 A 
ATOM     14  C   UNK A   5     143.219 168.072 191.448  0.00  0.00    -0.052 A 
ATOM     15  C   UNK A   5     143.753 167.112 190.563  0.00  0.00    +0.004 A 
ATOM     16  S   UNK A   5     145.143 165.065 187.447  0.00  0.00    -0.105 S 
ATOM     17  C   UNK A   5     146.788 165.815 187.224  0.00  0.00    +0.027 C 
ATOM     18  C   UNK A   5     147.503 165.435 185.918  0.00  0.00    +0.109 C 
ATOM     19  C   UNK A   5     147.424 166.572 184.862  0.00  0.00    +0.237 C 
ATOM     20  O   UNK A   5     148.302 167.439 184.774  0.00  0.00    -0.274 OA
ATOM     21  N   HYP A   6     146.336 166.633 184.017  0.00  0.00    -0.286 N 
ATOM     22  CD  HYP A   6     145.334 165.600 183.785  0.00  0.00    +0.042 C 
ATOM     23  CG  HYP A   6     144.376 166.184 182.742  0.00  0.00    +0.073 C 
ATOM     24  CB  HYP A   6     145.204 167.245 182.024  0.00  0.00    +0.002 C 
ATOM     25  CA  HYP A   6     146.176 167.755 183.089  0.00  0.00    +0.105 C 
ATOM     26  C   HYP A   6     145.609 168.952 183.884  0.00  0.00    +0.234 C 
ATOM     27  O   HYP A   6     144.422 169.033 184.194  0.00  0.00    -0.274 OA
ATOM     28  N   ALA A   7     146.571 169.831 184.338  0.00  0.00    -0.303 N 
ATOM     29  N   UNK A   5     148.930 165.248 186.208  0.00  0.00    -0.302 N 
ATOM     30  C   THR A   4     149.628 164.102 185.929  0.00  0.00    +0.237 C 
ATOM     31  O   THR A   4     149.120 163.146 185.343  0.00  0.00    -0.274 OA
ATOM     32  CA  THR A   4     151.128 164.130 186.293  0.00  0.00    +0.125 C 
ATOM     33  N   THR A   4     151.483 165.253 187.162  0.00  0.00    -0.300 N 
ATOM     34  C   ALA A   3     151.314 165.238 188.526  0.00  0.00    +0.234 C 
ATOM     35  O   ALA A   3     150.848 164.274 189.131  0.00  0.00    -0.274 OA
ATOM     36  CA  ALA A   3     151.712 166.558 189.223  0.00  0.00    +0.097 C 
ATOM     37  N   ALA A   3     150.567 167.063 189.961  0.00  0.00    -0.303 N 
ATOM     38  C   UNK A   2     149.483 167.599 189.312  0.00  0.00    +0.234 C 
ATOM     39  O   UNK A   2     149.441 167.670 188.084  0.00  0.00    -0.274 OA
ATOM     40  C   UNK A   2     148.332 168.091 190.229  0.00  0.00    +0.102 C 
ATOM     41  N   UNK A   2     147.275 168.622 189.374  0.00  0.00    -0.302 N 
ATOM     42  C   UNK A   1     146.195 169.331 189.826  0.00  0.00    +0.234 C 
ATOM     43  O   UNK A   1     146.096 169.676 191.005  0.00  0.00    -0.274 OA
ATOM     44  HA  ALA A   7     147.219 171.482 185.376  0.00  0.00    +0.059 HD
ATOM     45  H   UNK A   1     144.813 171.297 187.521  0.00  0.00    +0.150 HD
ATOM     46  H   UNK A   1     144.325 170.200 189.372  0.00  0.00    +0.060 HD
ATOM     47  H   UNK A   1     144.707 168.034 187.333  0.00  0.00    +0.034 HD
ATOM     48  H   UNK A   1     143.270 168.639 188.075  0.00  0.00    +0.034 HD
ATOM     49  H   UNK A   5     144.532 164.059 189.998  0.00  0.00    +0.166 HD
ATOM     50  H   UNK A   5     143.580 164.364 192.627  0.00  0.00    +0.064 HD
ATOM     51  H   UNK A   5     142.665 166.094 194.168  0.00  0.00    +0.062 HD
ATOM     52  H   UNK A   5     142.427 168.436 193.419  0.00  0.00    +0.062 HD
ATOM     53  H   UNK A   5     143.105 169.107 191.143  0.00  0.00    +0.062 HD
ATOM     54  H   UNK A   5     146.674 166.892 187.285  0.00  0.00    +0.040 HD
ATOM     55  H   UNK A   5     147.382 165.497 188.089  0.00  0.00    +0.040 HD
ATOM     56  H   UNK A   5     147.112 164.507 185.493  0.00  0.00    +0.060 HD
ATOM     57  HD1 HYP A   6     144.824 165.345 184.710  0.00  0.00    +0.049 HD
ATOM     58  HD2 HYP A   6     145.859 164.720 183.397  0.00  0.00    +0.049 HD
ATOM     59  HG  HYP A   6     144.019 165.411 182.055  0.00  0.00    +0.061 HD
ATOM     60  HB1 HYP A   6     144.594 168.044 181.589  0.00  0.00    +0.031 HD
ATOM     61  HB2 HYP A   6     145.777 166.767 181.220  0.00  0.00    +0.031 HD
ATOM     62  HA  HYP A   6     147.137 168.033 182.643  0.00  0.00    +0.060 HD
ATOM     63  H   ALA A   7     147.524 169.465 184.323  0.00  0.00    +0.149 HD
ATOM     64  H   UNK A   5     149.430 166.050 186.595  0.00  0.00    +0.150 HD
ATOM     65  HA  THR A   4     151.321 163.201 186.843  0.00  0.00    +0.062 HD
ATOM     66  H   THR A   4     151.917 166.042 186.696  0.00  0.00    +0.150 HD
ATOM     67  HA  ALA A   3     151.981 167.307 188.469  0.00  0.00    +0.059 HD
ATOM     68  H   ALA A   3     150.505 166.914 190.971  0.00  0.00    +0.149 HD
ATOM     69  H   UNK A   2     148.710 168.927 190.826  0.00  0.00    +0.060 HD
ATOM     70  H   UNK A   2     147.422 168.562 188.361  0.00  0.00    +0.150 HD
ENDROOT
BRANCH   1  71
ATOM     71  CB  ALA A   7     145.125 171.758 185.043  0.00  0.00    -0.038 C 
ATOM     72  HB1 ALA A   7     144.966 172.488 185.842  0.00  0.00    +0.025 HD
ATOM     73  HB2 ALA A   7     145.243 172.303 184.100  0.00  0.00    +0.025 HD
ATOM     74  HB3 ALA A   7     144.213 171.160 184.950  0.00  0.00    +0.025 HD
ENDBRANCH   1  71
BRANCH  36  75
ATOM     75  CB  ALA A   3     152.902 166.320 190.139  0.00  0.00    -0.038 C 
ATOM     76  HB1 ALA A   3     153.737 166.994 189.911  0.00  0.00    +0.025 HD
ATOM     77  HB2 ALA A   3     153.271 165.293 190.039  0.00  0.00    +0.025 HD
ATOM     78  HB3 ALA A   3     152.621 166.482 191.185  0.00  0.00    +0.025 HD
ENDBRANCH  36  75
BRANCH  40  79
ATOM     79  C   UNK A   2     147.798 166.934 191.095  0.00  0.00    +0.005 C 
ATOM     80  H   UNK A   2     148.327 166.010 190.820  0.00  0.00    +0.032 HD
ATOM     81  H   UNK A   2     146.743 166.739 190.883  0.00  0.00    +0.032 HD
BRANCH  79  82
ATOM     82  C   UNK A   2     147.936 167.161 192.610  0.00  0.00    +0.088 C 
BRANCH  82  83
ATOM     83  C   UNK A   2     148.705 168.465 192.871  0.00  0.00    -0.034 C 
ATOM     84  H   UNK A   2     149.431 168.667 192.075  0.00  0.00    +0.026 HD
ATOM     85  H   UNK A   2     149.286 168.394 193.798  0.00  0.00    +0.026 HD
ATOM     86  H   UNK A   2     148.024 169.320 192.950  0.00  0.00    +0.026 HD
ENDBRANCH  82  83
BRANCH  82  87
ATOM     87  C   UNK A   2     148.634 165.975 193.311  0.00  0.00    +0.073 C 
ATOM     88  H   UNK A   2     148.073 165.043 193.191  0.00  0.00    +0.059 HD
ATOM     89  H   UNK A   2     148.784 166.176 194.375  0.00  0.00    +0.059 HD
BRANCH  87  90
ATOM     90  O   UNK A   2     149.942 165.816 192.744  0.00  0.00    -0.392 OA
ATOM     91  H   UNK A   2     149.929 164.957 192.282  0.00  0.00    +0.210 HD
ENDBRANCH  87  90
ENDBRANCH  82  87
BRANCH  82  92
ATOM     92  O   UNK A   2     146.629 167.316 193.193  0.00  0.00    -0.387 OA
ATOM     93  H   UNK A   2     146.451 166.440 193.602  0.00  0.00    +0.210 HD
ENDBRANCH  82  92
ENDBRANCH  79  82
ENDBRANCH  40  79
BRANCH  23  94
ATOM     94  OD  HYP A   6     143.222 166.756 183.350  0.00  0.00    -0.390 OA
ATOM     95  HD  HYP A   6     143.233 166.554 184.312  0.00  0.00    +0.210 HD
ENDBRANCH  23  94
BRANCH  32  96
ATOM     96  CB  THR A   4     151.938 164.179 184.972  0.00  0.00    +0.079 C 
ATOM     97  HB  THR A   4     152.261 163.175 184.667  0.00  0.00    +0.061 HD
BRANCH  96  98
ATOM     98  CG2 THR A   4     153.170 165.066 185.109  0.00  0.00    -0.037 C 
ATOM     99 HG21 THR A   4     152.987 165.867 185.834  0.00  0.00    +0.026 HD
ATOM    100 HG22 THR A   4     153.437 165.520 184.149  0.00  0.00    +0.026 HD
ATOM    101 HG23 THR A   4     154.026 164.495 185.485  0.00  0.00    +0.026 HD
ENDBRANCH  96  98
BRANCH  96 102
ATOM    102  OG1 THR A   4     151.124 164.691 183.896  0.00  0.00    -0.390 OA
ATOM    103  HG1 THR A   4     150.546 165.375 184.279  0.00  0.00    +0.210 HD
ENDBRANCH  96 102
ENDBRANCH  32  96
TORSDOF 12
ENDMDL
MODEL 8
REMARK VINA RESULT:      -5.1      3.990      7.112
REMARK  Name = Phalloidin_conf2
REMARK  12 active torsions:
REMARK  status: ('A' for Active; 'I' for Inactive)
REMARK    1  A    between atoms: CB_1  and  CA_2
REMARK    2  A    between atoms: CG_24  and  OD_30
REMARK    3  A    between atoms: CA_34  and  CB_53
REMARK    4  A    between atoms: CA_38  and  CB_52
REMARK    5  A    between atoms: C_42  and  C_46
REMARK    6  A    between atoms: C_46  and  C_47
REMARK    7  A    between atoms: C_47  and  C_48
REMARK    8  A    between atoms: C_47  and  C_49
REMARK    9  A    between atoms: C_47  and  O_51
REMARK   10  A    between atoms: C_49  and  O_50
REMARK   11  A    between atoms: CB_53  and  CG2_54
REMARK   12  A    between atoms: CB_53  and  OG1_55
REMARK                            x       y       z     vdW  Elec       q    Type
REMARK                         _______ _______ _______ _____ _____    ______ ____
ROOT
ATOM      1  CA  ALA A   7     143.623 166.083 190.720  0.00  0.00    +0.097 C 
ATOM      2  C   ALA A   7     142.825 167.376 190.461  0.00  0.00    +0.234 C 
ATOM      3  O   ALA A   7     142.999 168.002 189.413  0.00  0.00    -0.274 OA
ATOM      4  N   UNK A   1     141.912 167.810 191.386  0.00  0.00    -0.302 N 
ATOM      5  C   UNK A   1     141.397 169.198 191.381  0.00  0.00    +0.103 C 
ATOM      6  C   UNK A   1     142.538 170.209 191.659  0.00  0.00    +0.002 C 
ATOM      7  C   UNK A   1     142.315 171.644 191.277  0.00  0.00    -0.006 A 
ATOM      8  C   UNK A   5     143.150 172.438 190.509  0.00  0.00    +0.078 A 
ATOM      9  N   UNK A   5     142.613 173.687 190.417  0.00  0.00    -0.349 N 
ATOM     10  C   UNK A   5     141.437 173.753 191.121  0.00  0.00    +0.048 A 
ATOM     11  C   UNK A   5     140.560 174.830 191.304  0.00  0.00    -0.038 A 
ATOM     12  C   UNK A   5     139.433 174.619 192.102  0.00  0.00    -0.060 A 
ATOM     13  C   UNK A   5     139.202 173.385 192.699  0.00  0.00    -0.061 A 
ATOM     14  C   UNK A   5     140.090 172.318 192.503  0.00  0.00    -0.052 A 
ATOM     15  C   UNK A   5     141.231 172.496 191.692  0.00  0.00    +0.004 A 
ATOM     16  S   UNK A   5     144.696 172.191 189.759  0.00  0.00    -0.105 S 
ATOM     17  C   UNK A   5     144.292 170.957 188.483  0.00  0.00    +0.027 C 
ATOM     18  C   UNK A   5     145.499 170.399 187.714  0.00  0.00    +0.109 C 
ATOM     19  C   UNK A   5     145.897 168.981 188.207  0.00  0.00    +0.237 C 
ATOM     20  O   UNK A   5     145.436 167.958 187.686  0.00  0.00    -0.274 OA
ATOM     21  N   HYP A   6     146.767 168.856 189.271  0.00  0.00    -0.286 N 
ATOM     22  CD  HYP A   6     147.604 169.895 189.858  0.00  0.00    +0.042 C 
ATOM     23  CG  HYP A   6     148.380 169.208 190.985  0.00  0.00    +0.073 C 
ATOM     24  CB  HYP A   6     148.383 167.733 190.595  0.00  0.00    +0.002 C 
ATOM     25  CA  HYP A   6     147.071 167.538 189.832  0.00  0.00    +0.105 C 
ATOM     26  C   HYP A   6     145.903 167.134 190.758  0.00  0.00    +0.234 C 
ATOM     27  O   HYP A   6     145.773 167.593 191.892  0.00  0.00    -0.274 OA
ATOM     28  N   ALA A   7     144.952 166.342 190.149  0.00  0.00    -0.303 N 
ATOM     29  N   UNK A   5     145.121 170.247 186.303  0.00  0.00    -0.302 N 
ATOM     30  C   THR A   4     145.798 170.822 185.259  0.00  0.00    +0.237 C 
ATOM     31  O   THR A   4     146.832 171.469 185.419  0.00  0.00    -0.274 OA
ATOM     32  CA  THR A   4     145.244 170.509 183.852  0.00  0.00    +0.125 C 
ATOM     33  N   THR A   4     143.906 169.913 183.886  0.00  0.00    -0.300 N 
ATOM     34  C   ALA A   3     142.752 170.649 184.004  0.00  0.00    +0.234 C 
ATOM     35  O   ALA A   3     142.748 171.875 184.093  0.00  0.00    -0.274 OA
ATOM     36  CA  ALA A   3     141.467 169.794 184.070  0.00  0.00    +0.097 C 
ATOM     37  N   ALA A   3     140.758 170.106 185.300  0.00  0.00    -0.303 N 
ATOM     38  C   UNK A   2     141.234 169.691 186.519  0.00  0.00    +0.234 C 
ATOM     39  O   UNK A   2     142.276 169.042 186.614  0.00  0.00    -0.274 OA
ATOM     40  C   UNK A   2     140.378 170.102 187.746  0.00  0.00    +0.102 C 
ATOM     41  N   UNK A   2     141.031 169.581 188.943  0.00  0.00    -0.302 N 
ATOM     42  C   UNK A   1     140.466 169.566 190.189  0.00  0.00    +0.234 C 
ATOM     43  O   UNK A   1     139.292 169.896 190.371  0.00  0.00    -0.274 OA
ATOM     44  HA  ALA A   7     143.176 165.309 190.087  0.00  0.00    +0.059 HD
ATOM     45  H   UNK A   1     141.756 167.268 192.225  0.00  0.00    +0.150 HD
ATOM     46  H   UNK A   1     140.733 169.222 192.255  0.00  0.00    +0.060 HD
ATOM     47  H   UNK A   1     143.467 169.859 191.199  0.00  0.00    +0.034 HD
ATOM     48  H   UNK A   1     142.752 170.183 192.737  0.00  0.00    +0.034 HD
ATOM     49  H   UNK A   5     143.039 174.455 189.920  0.00  0.00    +0.166 HD
ATOM     50  H   UNK A   5     140.751 175.798 190.852  0.00  0.00    +0.064 HD
ATOM     51  H   UNK A   5     138.735 175.437 192.269  0.00  0.00    +0.062 HD
ATOM     52  H   UNK A   5     138.323 173.240 193.322  0.00  0.00    +0.062 HD
ATOM     53  H   UNK A   5     139.887 171.363 192.976  0.00  0.00    +0.062 HD
ATOM     54  H   UNK A   5     143.751 170.148 188.960  0.00  0.00    +0.040 HD
ATOM     55  H   UNK A   5     143.600 171.455 187.793  0.00  0.00    +0.040 HD
ATOM     56  H   UNK A   5     146.364 171.067 187.769  0.00  0.00    +0.060 HD
ATOM     57  HD1 HYP A   6     146.994 170.717 190.225  0.00  0.00    +0.049 HD
ATOM     58  HD2 HYP A   6     148.275 170.255 189.072  0.00  0.00    +0.049 HD
ATOM     59  HG  HYP A   6     149.394 169.610 191.071  0.00  0.00    +0.061 HD
ATOM     60  HB1 HYP A   6     148.478 167.061 191.454  0.00  0.00    +0.031 HD
ATOM     61  HB2 HYP A   6     149.222 167.546 189.912  0.00  0.00    +0.031 HD
ATOM     62  HA  HYP A   6     147.185 166.792 189.039  0.00  0.00    +0.060 HD
ATOM     63  H   ALA A   7     144.993 166.334 189.129  0.00  0.00    +0.149 HD
ATOM     64  H   UNK A   5     144.334 169.629 186.102  0.00  0.00    +0.150 HD
ATOM     65  HA  THR A   4     145.171 171.474 183.336  0.00  0.00    +0.062 HD
ATOM     66  H   THR A   4     143.877 168.906 183.764  0.00  0.00    +0.150 HD
ATOM     67  HA  ALA A   3     141.731 168.731 184.096  0.00  0.00    +0.059 HD
ATOM     68  H   ALA A   3     139.959 170.744 185.281  0.00  0.00    +0.149 HD
ATOM     69  H   UNK A   2     139.409 169.599 187.665  0.00  0.00    +0.060 HD
ATOM     70  H   UNK A   2     141.918 169.086 188.809  0.00  0.00    +0.150 HD
ENDROOT
BRANCH   1  71
ATOM     71  CB  ALA A   7     143.650 165.576 192.154  0.00  0.00    -0.038 C 
ATOM     72  HB1 ALA A   7     142.858 164.840 192.324  0.00  0.00    +0.025 HD
ATOM     73  HB2 ALA A   7     144.607 165.116 192.420  0.00  0.00    +0.025 HD
ATOM     74  HB3 ALA A   7     143.492 166.404 192.853  0.00  0.00    +0.025 HD
ENDBRANCH   1  71
BRANCH  36  75
ATOM     75  CB  ALA A   3     140.603 170.066 182.849  0.00  0.00    -0.038 C 
ATOM     76  HB1 ALA A   3     140.910 170.979 182.324  0.00  0.00    +0.025 HD
ATOM     77  HB2 ALA A   3     139.552 170.187 183.135  0.00  0.00    +0.025 HD
ATOM     78  HB3 ALA A   3     140.671 169.236 182.137  0.00  0.00    +0.025 HD
ENDBRANCH  36  75
BRANCH  40  79
ATOM     79  C   UNK A   2     140.246 171.635 187.824  0.00  0.00    +0.005 C 
ATOM     80  H   UNK A   2     140.890 172.087 187.055  0.00  0.00    +0.032 HD
ATOM     81  H   UNK A   2     140.624 172.014 188.778  0.00  0.00    +0.032 HD
BRANCH  79  82
ATOM     82  C   UNK A   2     138.810 172.158 187.649  0.00  0.00    +0.088 C 
BRANCH  82  83
ATOM     83  C   UNK A   2     138.411 172.995 188.873  0.00  0.00    -0.034 C 
ATOM     84  H   UNK A   2     137.335 172.931 189.067  0.00  0.00    +0.026 HD
ATOM     85  H   UNK A   2     138.622 174.058 188.702  0.00  0.00    +0.026 HD
ATOM     86  H   UNK A   2     138.949 172.672 189.770  0.00  0.00    +0.026 HD
ENDBRANCH  82  83
BRANCH  82  87
ATOM     87  C   UNK A   2     137.801 171.011 187.428  0.00  0.00    +0.073 C 
ATOM     88  H   UNK A   2     138.299 170.077 187.149  0.00  0.00    +0.059 HD
ATOM     89  H   UNK A   2     137.064 171.273 186.665  0.00  0.00    +0.059 HD
BRANCH  87  90
ATOM     90  O   UNK A   2     137.065 170.810 188.643  0.00  0.00    -0.392 OA
ATOM     91  H   UNK A   2     137.527 170.094 189.119  0.00  0.00    +0.210 HD
ENDBRANCH  87  90
ENDBRANCH  82  87
BRANCH  82  92
ATOM     92  O   UNK A   2     138.753 173.028 186.503  0.00  0.00    -0.387 OA
ATOM     93  H   UNK A   2     139.636 173.461 186.495  0.00  0.00    +0.210 HD
ENDBRANCH  82  92
ENDBRANCH  79  82
ENDBRANCH  40  79
BRANCH  23  94
ATOM     94  OD  HYP A   6     147.755 169.404 192.250  0.00  0.00    -0.390 OA
ATOM     95  HD  HYP A   6     147.630 170.367 192.400  0.00  0.00    +0.210 HD
ENDBRANCH  23  94
BRANCH  32  96
ATOM     96  CB  THR A   4     146.249 169.566 183.143  0.00  0.00    +0.079 C 
ATOM     97  HB  THR A   4     146.834 170.106 182.387  0.00  0.00    +0.061 HD
BRANCH  96  98
ATOM     98  CG2 THR A   4     145.535 168.402 182.465  0.00  0.00    -0.037 C 
ATOM     99 HG21 THR A   4     145.116 168.717 181.503  0.00  0.00    +0.026 HD
ATOM    100 HG22 THR A   4     144.721 168.022 183.091  0.00  0.00    +0.026 HD
ATOM    101 HG23 THR A   4     146.232 167.585 182.250  0.00  0.00    +0.026 HD
ENDBRANCH  96  98
BRANCH  96 102
ATOM    102  OG1 THR A   4     147.197 169.031 184.090  0.00  0.00    -0.390 OA
ATOM    103  HG1 THR A   4     146.771 169.059 184.965  0.00  0.00    +0.210 HD
ENDBRANCH  96 102
ENDBRANCH  32  96
TORSDOF 12
ENDMDL
MODEL 9
REMARK VINA RESULT:      -5.1      2.474      7.011
REMARK  Name = Phalloidin_conf2
REMARK  12 active torsions:
REMARK  status: ('A' for Active; 'I' for Inactive)
REMARK    1  A    between atoms: CB_1  and  CA_2
REMARK    2  A    between atoms: CG_24  and  OD_30
REMARK    3  A    between atoms: CA_34  and  CB_53
REMARK    4  A    between atoms: CA_38  and  CB_52
REMARK    5  A    between atoms: C_42  and  C_46
REMARK    6  A    between atoms: C_46  and  C_47
REMARK    7  A    between atoms: C_47  and  C_48
REMARK    8  A    between atoms: C_47  and  C_49
REMARK    9  A    between atoms: C_47  and  O_51
REMARK   10  A    between atoms: C_49  and  O_50
REMARK   11  A    between atoms: CB_53  and  CG2_54
REMARK   12  A    between atoms: CB_53  and  OG1_55
REMARK                            x       y       z     vdW  Elec       q    Type
REMARK                         _______ _______ _______ _____ _____    ______ ____
ROOT
ATOM      1  CA  ALA A   7     143.072 165.502 191.372  0.00  0.00    +0.097 C 
ATOM      2  C   ALA A   7     143.186 166.620 190.317  0.00  0.00    +0.234 C 
ATOM      3  O   ALA A   7     144.060 166.556 189.450  0.00  0.00    -0.274 OA
ATOM      4  N   UNK A   1     142.303 167.668 190.337  0.00  0.00    -0.302 N 
ATOM      5  C   UNK A   1     142.574 168.930 189.612  0.00  0.00    +0.103 C 
ATOM      6  C   UNK A   1     143.821 169.641 190.194  0.00  0.00    +0.002 C 
ATOM      7  C   UNK A   1     144.498 170.679 189.347  0.00  0.00    -0.006 A 
ATOM      8  C   UNK A   5     145.844 170.744 189.031  0.00  0.00    +0.078 A 
ATOM      9  N   UNK A   5     146.069 171.852 188.269  0.00  0.00    -0.349 N 
ATOM     10  C   UNK A   5     144.899 172.544 188.078  0.00  0.00    +0.048 A 
ATOM     11  C   UNK A   5     144.663 173.730 187.372  0.00  0.00    -0.038 A 
ATOM     12  C   UNK A   5     143.359 174.230 187.364  0.00  0.00    -0.060 A 
ATOM     13  C   UNK A   5     142.338 173.573 188.042  0.00  0.00    -0.061 A 
ATOM     14  C   UNK A   5     142.593 172.386 188.741  0.00  0.00    -0.052 A 
ATOM     15  C   UNK A   5     143.898 171.848 188.759  0.00  0.00    +0.004 A 
ATOM     16  S   UNK A   5     147.232 169.794 189.461  0.00  0.00    -0.105 S 
ATOM     17  C   UNK A   5     146.864 168.212 188.637  0.00  0.00    +0.027 C 
ATOM     18  C   UNK A   5     147.849 167.075 188.946  0.00  0.00    +0.109 C 
ATOM     19  C   UNK A   5     147.268 166.067 189.975  0.00  0.00    +0.237 C 
ATOM     20  O   UNK A   5     146.640 165.062 189.618  0.00  0.00    -0.274 OA
ATOM     21  N   HYP A   6     147.433 166.309 191.323  0.00  0.00    -0.286 N 
ATOM     22  CD  HYP A   6     148.329 167.274 191.948  0.00  0.00    +0.042 C 
ATOM     23  CG  HYP A   6     148.125 167.107 193.456  0.00  0.00    +0.073 C 
ATOM     24  CB  HYP A   6     147.584 165.689 193.608  0.00  0.00    +0.002 C 
ATOM     25  CA  HYP A   6     146.800 165.441 192.318  0.00  0.00    +0.105 C 
ATOM     26  C   HYP A   6     145.317 165.857 192.438  0.00  0.00    +0.234 C 
ATOM     27  O   HYP A   6     144.962 166.850 193.070  0.00  0.00    -0.274 OA
ATOM     28  N   ALA A   7     144.460 165.111 191.655  0.00  0.00    -0.303 N 
ATOM     29  N   UNK A   5     148.077 166.311 187.713  0.00  0.00    -0.302 N 
ATOM     30  C   THR A   4     149.312 166.089 187.162  0.00  0.00    +0.237 C 
ATOM     31  O   THR A   4     150.353 166.465 187.701  0.00  0.00    -0.274 OA
ATOM     32  CA  THR A   4     149.325 165.235 185.875  0.00  0.00    +0.125 C 
ATOM     33  N   THR A   4     147.994 165.073 185.286  0.00  0.00    -0.300 N 
ATOM     34  C   ALA A   3     147.408 166.009 184.469  0.00  0.00    +0.234 C 
ATOM     35  O   ALA A   3     147.957 167.067 184.166  0.00  0.00    -0.274 OA
ATOM     36  CA  ALA A   3     145.980 165.638 184.012  0.00  0.00    +0.097 C 
ATOM     37  N   ALA A   3     145.068 166.694 184.418  0.00  0.00    -0.303 N 
ATOM     38  C   UNK A   2     144.724 166.869 185.735  0.00  0.00    +0.234 C 
ATOM     39  O   UNK A   2     145.176 166.140 186.618  0.00  0.00    -0.274 OA
ATOM     40  C   UNK A   2     143.747 168.040 186.020  0.00  0.00    +0.102 C 
ATOM     41  N   UNK A   2     143.498 168.075 187.458  0.00  0.00    -0.302 N 
ATOM     42  C   UNK A   1     142.533 168.836 188.059  0.00  0.00    +0.234 C 
ATOM     43  O   UNK A   1     141.710 169.476 187.400  0.00  0.00    -0.274 OA
ATOM     44  HA  ALA A   7     142.621 164.641 190.864  0.00  0.00    +0.059 HD
ATOM     45  H   UNK A   1     141.570 167.689 191.034  0.00  0.00    +0.150 HD
ATOM     46  H   UNK A   1     141.707 169.554 189.865  0.00  0.00    +0.060 HD
ATOM     47  H   UNK A   1     144.562 168.899 190.506  0.00  0.00    +0.034 HD
ATOM     48  H   UNK A   1     143.522 170.125 191.135  0.00  0.00    +0.034 HD
ATOM     49  H   UNK A   5     146.974 172.130 187.921  0.00  0.00    +0.166 HD
ATOM     50  H   UNK A   5     145.464 174.250 186.858  0.00  0.00    +0.064 HD
ATOM     51  H   UNK A   5     143.143 175.153 186.829  0.00  0.00    +0.062 HD
ATOM     52  H   UNK A   5     141.330 173.980 188.029  0.00  0.00    +0.062 HD
ATOM     53  H   UNK A   5     141.780 171.889 189.260  0.00  0.00    +0.062 HD
ATOM     54  H   UNK A   5     145.859 167.917 188.915  0.00  0.00    +0.040 HD
ATOM     55  H   UNK A   5     146.859 168.429 187.562  0.00  0.00    +0.040 HD
ATOM     56  H   UNK A   5     148.812 167.453 189.300  0.00  0.00    +0.060 HD
ATOM     57  HD1 HYP A   6     148.101 168.283 191.614  0.00  0.00    +0.049 HD
ATOM     58  HD2 HYP A   6     149.350 167.009 191.650  0.00  0.00    +0.049 HD
ATOM     59  HG  HYP A   6     149.064 167.246 194.001  0.00  0.00    +0.061 HD
ATOM     60  HB1 HYP A   6     146.974 165.555 194.507  0.00  0.00    +0.031 HD
ATOM     61  HB2 HYP A   6     148.427 164.988 193.651  0.00  0.00    +0.031 HD
ATOM     62  HA  HYP A   6     146.862 164.390 192.016  0.00  0.00    +0.060 HD
ATOM     63  H   ALA A   7     144.916 164.569 190.920  0.00  0.00    +0.149 HD
ATOM     64  H   UNK A   5     147.258 165.880 187.280  0.00  0.00    +0.150 HD
ATOM     65  HA  THR A   4     149.949 165.782 185.158  0.00  0.00    +0.062 HD
ATOM     66  H   THR A   4     147.540 164.186 185.479  0.00  0.00    +0.150 HD
ATOM     67  HA  ALA A   3     145.663 164.713 184.506  0.00  0.00    +0.059 HD
ATOM     68  H   ALA A   3     144.766 167.396 183.738  0.00  0.00    +0.149 HD
ATOM     69  H   UNK A   2     142.793 167.809 185.536  0.00  0.00    +0.060 HD
ATOM     70  H   UNK A   2     144.000 167.391 188.033  0.00  0.00    +0.150 HD
ENDROOT
BRANCH   1  71
ATOM     71  CB  ALA A   7     142.248 165.816 192.611  0.00  0.00    -0.038 C 
ATOM     72  HB1 ALA A   7     141.574 166.659 192.430  0.00  0.00    +0.025 HD
ATOM     73  HB2 ALA A   7     141.647 164.963 192.944  0.00  0.00    +0.025 HD
ATOM     74  HB3 ALA A   7     142.904 166.085 193.445  0.00  0.00    +0.025 HD
ENDBRANCH   1  71
BRANCH  36  75
ATOM     75  CB  ALA A   3     145.957 165.434 182.505  0.00  0.00    -0.038 C 
ATOM     76  HB1 ALA A   3     146.958 165.523 182.064  0.00  0.00    +0.025 HD
ATOM     77  HB2 ALA A   3     145.317 166.179 182.021  0.00  0.00    +0.025 HD
ATOM     78  HB3 ALA A   3     145.573 164.439 182.257  0.00  0.00    +0.025 HD
ENDBRANCH  36  75
BRANCH  40  79
ATOM     79  C   UNK A   2     144.348 169.375 185.542  0.00  0.00    +0.005 C 
ATOM     80  H   UNK A   2     145.424 169.236 185.361  0.00  0.00    +0.032 HD
ATOM     81  H   UNK A   2     144.281 170.138 186.322  0.00  0.00    +0.032 HD
BRANCH  79  82
ATOM     82  C   UNK A   2     143.694 169.946 184.272  0.00  0.00    +0.088 C 
BRANCH  82  83
ATOM     83  C   UNK A   2     143.575 171.472 184.392  0.00  0.00    -0.034 C 
ATOM     84  H   UNK A   2     143.491 171.785 185.439  0.00  0.00    +0.026 HD
ATOM     85  H   UNK A   2     142.663 171.830 183.899  0.00  0.00    +0.026 HD
ATOM     86  H   UNK A   2     144.437 171.976 183.943  0.00  0.00    +0.026 HD
ENDBRANCH  82  83
BRANCH  82  87
ATOM     87  C   UNK A   2     142.310 169.316 184.002  0.00  0.00    +0.073 C 
ATOM     88  H   UNK A   2     142.228 168.313 184.431  0.00  0.00    +0.059 HD
ATOM     89  H   UNK A   2     142.097 169.273 182.931  0.00  0.00    +0.059 HD
BRANCH  87  90
ATOM     90  O   UNK A   2     141.304 170.161 184.578  0.00  0.00    -0.392 OA
ATOM     91  H   UNK A   2     140.462 169.679 184.477  0.00  0.00    +0.210 HD
ENDBRANCH  87  90
ENDBRANCH  82  87
BRANCH  82  92
ATOM     92  O   UNK A   2     144.536 169.675 183.136  0.00  0.00    -0.387 OA
ATOM     93  H   UNK A   2     145.153 168.983 183.463  0.00  0.00    +0.210 HD
ENDBRANCH  82  92
ENDBRANCH  79  82
ENDBRANCH  40  79
BRANCH  23  94
ATOM     94  OD  HYP A   6     147.207 168.066 193.972  0.00  0.00    -0.390 OA
ATOM     95  HD  HYP A   6     146.742 167.680 194.747  0.00  0.00    +0.210 HD
ENDBRANCH  23  94
BRANCH  32  96
ATOM     96  CB  THR A   4     149.945 163.858 186.224  0.00  0.00    +0.079 C 
ATOM     97  HB  THR A   4     151.024 163.845 186.020  0.00  0.00    +0.061 HD
BRANCH  96  98
ATOM     98  CG2 THR A   4     149.286 162.736 185.430  0.00  0.00    -0.037 C 
ATOM     99 HG21 THR A   4     148.825 163.131 184.518  0.00  0.00    +0.026 HD
ATOM    100 HG22 THR A   4     148.513 162.236 186.022  0.00  0.00    +0.026 HD
ATOM    101 HG23 THR A   4     150.026 161.994 185.109  0.00  0.00    +0.026 HD
ENDBRANCH  96  98
BRANCH  96 102
ATOM    102  OG1 THR A   4     149.790 163.573 187.631  0.00  0.00    -0.390 OA
ATOM    103  HG1 THR A   4     149.312 162.728 187.698  0.00  0.00    +0.210 HD
ENDBRANCH  96 102
ENDBRANCH  32  96
TORSDOF 12
ENDMDL
MODEL 10
REMARK VINA RESULT:      -5.0      3.258      6.814
REMARK  Name = Phalloidin_conf2
REMARK  12 active torsions:
REMARK  status: ('A' for Active; 'I' for Inactive)
REMARK    1  A    between atoms: CB_1  and  CA_2
REMARK    2  A    between atoms: CG_24  and  OD_30
REMARK    3  A    between atoms: CA_34  and  CB_53
REMARK    4  A    between atoms: CA_38  and  CB_52
REMARK    5  A    between atoms: C_42  and  C_46
REMARK    6  A    between atoms: C_46  and  C_47
REMARK    7  A    between atoms: C_47  and  C_48
REMARK    8  A    between atoms: C_47  and  C_49
REMARK    9  A    between atoms: C_47  and  O_51
REMARK   10  A    between atoms: C_49  and  O_50
REMARK   11  A    between atoms: CB_53  and  CG2_54
REMARK   12  A    between atoms: CB_53  and  OG1_55
REMARK                            x       y       z     vdW  Elec       q    Type
REMARK                         _______ _______ _______ _____ _____    ______ ____
ROOT
ATOM      1  CA  ALA A   7     143.207 165.563 191.533  0.00  0.00    +0.097 C 
ATOM      2  C   ALA A   7     142.776 166.860 190.821  0.00  0.00    +0.234 C 
ATOM      3  O   ALA A   7     143.283 167.162 189.739  0.00  0.00    -0.274 OA
ATOM      4  N   UNK A   1     141.817 167.661 191.385  0.00  0.00    -0.302 N 
ATOM      5  C   UNK A   1     141.627 169.067 190.962  0.00  0.00    +0.103 C 
ATOM      6  C   UNK A   1     142.884 169.913 191.288  0.00  0.00    +0.002 C 
ATOM      7  C   UNK A   1     143.058 171.219 190.569  0.00  0.00    -0.006 A 
ATOM      8  C   UNK A   5     144.179 171.642 189.876  0.00  0.00    +0.078 A 
ATOM      9  N   UNK A   5     143.956 172.898 189.395  0.00  0.00    -0.349 N 
ATOM     10  C   UNK A   5     142.708 173.335 189.764  0.00  0.00    +0.048 A 
ATOM     11  C   UNK A   5     142.069 174.552 189.497  0.00  0.00    -0.038 A 
ATOM     12  C   UNK A   5     140.789 174.740 190.026  0.00  0.00    -0.060 A 
ATOM     13  C   UNK A   5     140.183 173.754 190.795  0.00  0.00    -0.061 A 
ATOM     14  C   UNK A   5     140.838 172.541 191.050  0.00  0.00    -0.052 A 
ATOM     15  C   UNK A   5     142.126 172.316 190.520  0.00  0.00    +0.004 A 
ATOM     16  S   UNK A   5     145.750 170.962 189.591  0.00  0.00    -0.105 S 
ATOM     17  C   UNK A   5     145.345 169.527 188.545  0.00  0.00    +0.027 C 
ATOM     18  C   UNK A   5     146.528 168.601 188.227  0.00  0.00    +0.109 C 
ATOM     19  C   UNK A   5     146.503 167.310 189.090  0.00  0.00    +0.237 C 
ATOM     20  O   UNK A   5     145.941 166.278 188.702  0.00  0.00    -0.274 OA
ATOM     21  N   HYP A   6     147.100 167.318 190.334  0.00  0.00    -0.286 N 
ATOM     22  CD  HYP A   6     148.012 168.319 190.873  0.00  0.00    +0.042 C 
ATOM     23  CG  HYP A   6     148.384 167.824 192.273  0.00  0.00    +0.073 C 
ATOM     24  CB  HYP A   6     148.143 166.318 192.217  0.00  0.00    +0.002 C 
ATOM     25  CA  HYP A   6     146.995 166.155 191.218  0.00  0.00    +0.105 C 
ATOM     26  C   HYP A   6     145.608 166.198 191.898  0.00  0.00    +0.234 C 
ATOM     27  O   HYP A   6     145.363 166.946 192.843  0.00  0.00    -0.274 OA
ATOM     28  N   ALA A   7     144.646 165.446 191.258  0.00  0.00    -0.303 N 
ATOM     29  N   UNK A   5     146.409 168.159 186.832  0.00  0.00    -0.302 N 
ATOM     30  C   THR A   4     147.385 168.329 185.885  0.00  0.00    +0.237 C 
ATOM     31  O   THR A   4     148.484 168.816 186.150  0.00  0.00    -0.274 OA
ATOM     32  CA  THR A   4     147.062 167.764 184.485  0.00  0.00    +0.125 C 
ATOM     33  N   THR A   4     145.647 167.425 184.320  0.00  0.00    -0.300 N 
ATOM     34  C   ALA A   3     144.680 168.347 183.997  0.00  0.00    +0.234 C 
ATOM     35  O   ALA A   3     144.927 169.538 183.821  0.00  0.00    -0.274 OA
ATOM     36  CA  ALA A   3     143.253 167.761 183.930  0.00  0.00    +0.097 C 
ATOM     37  N   ALA A   3     142.402 168.488 184.858  0.00  0.00    -0.303 N 
ATOM     38  C   UNK A   2     142.528 168.325 186.215  0.00  0.00    +0.234 C 
ATOM     39  O   UNK A   2     143.365 167.559 186.693  0.00  0.00    -0.274 OA
ATOM     40  C   UNK A   2     141.560 169.170 187.082  0.00  0.00    +0.102 C 
ATOM     41  N   UNK A   2     141.837 168.871 188.484  0.00  0.00    -0.302 N 
ATOM     42  C   UNK A   1     141.050 169.267 189.531  0.00  0.00    +0.234 C 
ATOM     43  O   UNK A   1     139.964 169.822 189.350  0.00  0.00    -0.274 OA
ATOM     44  HA  ALA A   7     142.734 164.738 190.989  0.00  0.00    +0.059 HD
ATOM     45  H   UNK A   1     141.385 167.383 192.256  0.00  0.00    +0.150 HD
ATOM     46  H   UNK A   1     140.827 169.422 191.625  0.00  0.00    +0.060 HD
ATOM     47  H   UNK A   1     143.786 169.309 191.151  0.00  0.00    +0.034 HD
ATOM     48  H   UNK A   1     142.873 170.127 192.366  0.00  0.00    +0.034 HD
ATOM     49  H   UNK A   5     144.628 173.433 188.865  0.00  0.00    +0.166 HD
ATOM     50  H   UNK A   5     142.550 175.327 188.910  0.00  0.00    +0.064 HD
ATOM     51  H   UNK A   5     140.267 175.677 189.841  0.00  0.00    +0.062 HD
ATOM     52  H   UNK A   5     139.188 173.920 191.204  0.00  0.00    +0.062 HD
ATOM     53  H   UNK A   5     140.343 171.785 191.651  0.00  0.00    +0.062 HD
ATOM     54  H   UNK A   5     144.558 168.967 189.038  0.00  0.00    +0.040 HD
ATOM     55  H   UNK A   5     144.926 169.940 187.620  0.00  0.00    +0.040 HD
ATOM     56  H   UNK A   5     147.489 169.108 188.347  0.00  0.00    +0.060 HD
ATOM     57  HD1 HYP A   6     147.536 169.297 190.900  0.00  0.00    +0.049 HD
ATOM     58  HD2 HYP A   6     148.886 168.351 190.214  0.00  0.00    +0.049 HD
ATOM     59  HG  HYP A   6     149.424 168.061 192.514  0.00  0.00    +0.061 HD
ATOM     60  HB1 HYP A   6     147.919 165.882 193.195  0.00  0.00    +0.031 HD
ATOM     61  HB2 HYP A   6     149.037 165.828 191.811  0.00  0.00    +0.031 HD
ATOM     62  HA  HYP A   6     147.096 165.224 190.652  0.00  0.00    +0.060 HD
ATOM     63  H   ALA A   7     144.883 165.171 190.304  0.00  0.00    +0.149 HD
ATOM     64  H   UNK A   5     145.561 167.648 186.582  0.00  0.00    +0.150 HD
ATOM     65  HA  THR A   4     147.304 168.563 183.775  0.00  0.00    +0.062 HD
ATOM     66  H   THR A   4     145.424 166.439 184.410  0.00  0.00    +0.150 HD
ATOM     67  HA  ALA A   3     143.269 166.711 184.243  0.00  0.00    +0.059 HD
ATOM     68  H   ALA A   3     141.780 169.223 184.511  0.00  0.00    +0.149 HD
ATOM     69  H   UNK A   2     140.540 168.830 186.878  0.00  0.00    +0.060 HD
ATOM     70  H   UNK A   2     142.604 168.219 188.677  0.00  0.00    +0.150 HD
ENDROOT
BRANCH   1  71
ATOM     71  CB  ALA A   7     142.842 165.441 193.005  0.00  0.00    -0.038 C 
ATOM     72  HB1 ALA A   7     141.821 165.068 193.125  0.00  0.00    +0.025 HD
ATOM     73  HB2 ALA A   7     143.516 164.774 193.551  0.00  0.00    +0.025 HD
ATOM     74  HB3 ALA A   7     142.901 166.420 193.493  0.00  0.00    +0.025 HD
ENDBRANCH   1  71
BRANCH  36  75
ATOM     75  CB  ALA A   3     142.724 167.851 182.507  0.00  0.00    -0.038 C 
ATOM     76  HB1 ALA A   3     142.926 166.937 181.935  0.00  0.00    +0.025 HD
ATOM     77  HB2 ALA A   3     143.192 168.684 181.970  0.00  0.00    +0.025 HD
ATOM     78  HB3 ALA A   3     141.640 168.009 182.508  0.00  0.00    +0.025 HD
ENDBRANCH  36  75
BRANCH  40  79
ATOM     79  C   UNK A   2     141.753 170.673 186.801  0.00  0.00    +0.005 C 
ATOM     80  H   UNK A   2     142.587 170.798 186.095  0.00  0.00    +0.032 HD
ATOM     81  H   UNK A   2     142.055 171.207 187.706  0.00  0.00    +0.032 HD
BRANCH  79  82
ATOM     82  C   UNK A   2     140.507 171.377 186.237  0.00  0.00    +0.088 C 
BRANCH  82  83
ATOM     83  C   UNK A   2     140.754 171.776 184.775  0.00  0.00    -0.034 C 
ATOM     84  H   UNK A   2     140.150 171.172 184.089  0.00  0.00    +0.026 HD
ATOM     85  H   UNK A   2     141.798 171.595 184.495  0.00  0.00    +0.026 HD
ATOM     86  H   UNK A   2     140.524 172.833 184.606  0.00  0.00    +0.026 HD
ENDBRANCH  82  83
BRANCH  82  87
ATOM     87  C   UNK A   2     140.114 172.614 187.075  0.00  0.00    +0.073 C 
ATOM     88  H   UNK A   2     139.808 173.453 186.443  0.00  0.00    +0.059 HD
ATOM     89  H   UNK A   2     140.933 172.927 187.727  0.00  0.00    +0.059 HD
BRANCH  87  90
ATOM     90  O   UNK A   2     139.027 172.253 187.939  0.00  0.00    -0.392 OA
ATOM     91  H   UNK A   2     139.233 172.651 188.806  0.00  0.00    +0.210 HD
ENDBRANCH  87  90
ENDBRANCH  82  87
BRANCH  82  92
ATOM     92  O   UNK A   2     139.394 170.462 186.245  0.00  0.00    -0.387 OA
ATOM     93  H   UNK A   2     139.380 170.106 185.329  0.00  0.00    +0.210 HD
ENDBRANCH  82  92
ENDBRANCH  79  82
ENDBRANCH  40  79
BRANCH  23  94
ATOM     94  OD  HYP A   6     147.582 168.436 193.279  0.00  0.00    -0.390 OA
ATOM     95  HD  HYP A   6     147.375 167.771 193.972  0.00  0.00    +0.210 HD
ENDBRANCH  23  94
BRANCH  32  96
ATOM     96  CB  THR A   4     147.957 166.519 184.256  0.00  0.00    +0.079 C 
ATOM     97  HB  THR A   4     148.906 166.795 183.779  0.00  0.00    +0.061 HD
BRANCH  96  98
ATOM     98  CG2 THR A   4     147.256 165.485 183.381  0.00  0.00    -0.037 C 
ATOM     99 HG21 THR A   4     147.870 164.582 183.287  0.00  0.00    +0.026 HD
ATOM    100 HG22 THR A   4     147.065 165.882 182.379  0.00  0.00    +0.026 HD
ATOM    101 HG23 THR A   4     146.306 165.171 183.828  0.00  0.00    +0.026 HD
ENDBRANCH  96  98
BRANCH  96 102
ATOM    102  OG1 THR A   4     148.295 165.898 185.514  0.00  0.00    -0.390 OA
ATOM    103  HG1 THR A   4     148.773 166.565 186.039  0.00  0.00    +0.210 HD
ENDBRANCH  96 102
ENDBRANCH  32  96
TORSDOF 12
ENDMDL
