MODEL 1
REMARK VINA RESULT:      -6.3      0.000      0.000
REMARK  Name = Phalloidin_conf1
REMARK  12 active torsions:
REMARK  status: ('A' for Active; 'I' for Inactive)
REMARK    1  A    between atoms: CB_1  and  CA_2
REMARK    2  A    between atoms: CG_24  and  OD_30
REMARK    3  A    between atoms: CA_34  and  CB_53
REMARK    4  A    between atoms: CA_38  and  CB_52
REMARK    5  A    between atoms: C_42  and  C_46
REMARK    6  A    between atoms: C_46  and  C_47
REMARK    7  A    between atoms: C_47  and  C_48
REMARK    8  A    between atoms: C_47  and  C_49
REMARK    9  A    between atoms: C_47  and  O_51
REMARK   10  A    between atoms: C_49  and  O_50
REMARK   11  A    between atoms: CB_53  and  CG2_54
REMARK   12  A    between atoms: CB_53  and  OG1_55
REMARK                            x       y       z     vdW  Elec       q    Type
REMARK                         _______ _______ _______ _____ _____    ______ ____
ROOT
ATOM      1  CA  ALA A   7     146.889 165.007 185.795  0.00  0.00    +0.097 C 
ATOM      2  C   ALA A   7     145.675 165.889 185.436  0.00  0.00    +0.234 C 
ATOM      3  O   ALA A   7     145.041 165.736 184.391  0.00  0.00    -0.274 OA
ATOM      4  N   UNK A   1     145.282 166.768 186.418  0.00  0.00    -0.302 N 
ATOM      5  C   UNK A   1     144.033 167.528 186.355  0.00  0.00    +0.103 C 
ATOM      6  C   UNK A   1     143.322 167.587 187.719  0.00  0.00    +0.002 C 
ATOM      7  C   UNK A   1     143.394 166.326 188.539  0.00  0.00    -0.006 A 
ATOM      8  C   UNK A   5     143.866 166.213 189.832  0.00  0.00    +0.078 A 
ATOM      9  N   UNK A   5     143.714 164.921 190.247  0.00  0.00    -0.349 N 
ATOM     10  C   UNK A   5     143.221 164.150 189.224  0.00  0.00    +0.048 A 
ATOM     11  C   UNK A   5     142.951 162.777 189.182  0.00  0.00    -0.038 A 
ATOM     12  C   UNK A   5     142.431 162.254 187.994  0.00  0.00    -0.060 A 
ATOM     13  C   UNK A   5     142.181 163.077 186.901  0.00  0.00    -0.061 A 
ATOM     14  C   UNK A   5     142.446 164.451 186.965  0.00  0.00    -0.052 A 
ATOM     15  C   UNK A   5     142.986 165.005 188.144  0.00  0.00    +0.004 A 
ATOM     16  S   UNK A   5     144.482 167.394 190.940  0.00  0.00    -0.105 S 
ATOM     17  C   UNK A   5     146.157 166.765 191.304  0.00  0.00    +0.027 C 
ATOM     18  C   UNK A   5     147.307 167.701 190.918  0.00  0.00    +0.109 C 
ATOM     19  C   UNK A   5     147.593 167.670 189.398  0.00  0.00    +0.237 C 
ATOM     20  O   UNK A   5     146.852 168.227 188.578  0.00  0.00    -0.274 OA
ATOM     21  N   HYP A   6     148.748 167.041 188.981  0.00  0.00    -0.286 N 
ATOM     22  CD  HYP A   6     149.684 166.276 189.796  0.00  0.00    +0.042 C 
ATOM     23  CG  HYP A   6     150.644 165.660 188.780  0.00  0.00    +0.073 C 
ATOM     24  CB  HYP A   6     150.734 166.738 187.704  0.00  0.00    +0.002 C 
ATOM     25  CA  HYP A   6     149.316 167.323 187.657  0.00  0.00    +0.105 C 
ATOM     26  C   HYP A   6     148.526 166.729 186.484  0.00  0.00    +0.234 C 
ATOM     27  O   HYP A   6     148.663 167.141 185.336  0.00  0.00    -0.274 OA
ATOM     28  N   ALA A   7     147.729 165.655 186.797  0.00  0.00    -0.303 N 
ATOM     29  N   UNK A   5     147.112 169.100 191.270  0.00  0.00    -0.302 N 
ATOM     30  C   THR A   4     148.188 169.962 191.332  0.00  0.00    +0.237 C 
ATOM     31  O   THR A   4     149.346 169.543 191.366  0.00  0.00    -0.274 OA
ATOM     32  CA  THR A   4     147.821 171.461 191.374  0.00  0.00    +0.125 C 
ATOM     33  N   THR A   4     147.058 171.798 190.165  0.00  0.00    -0.300 N 
ATOM     34  C   ALA A   3     145.707 171.572 190.045  0.00  0.00    +0.234 C 
ATOM     35  O   ALA A   3     145.074 171.014 190.939  0.00  0.00    -0.274 OA
ATOM     36  CA  ALA A   3     145.100 172.048 188.717  0.00  0.00    +0.097 C 
ATOM     37  N   ALA A   3     145.628 171.240 187.623  0.00  0.00    -0.303 N 
ATOM     38  C   UNK A   2     145.650 171.724 186.328  0.00  0.00    +0.234 C 
ATOM     39  O   UNK A   2     145.535 172.927 186.093  0.00  0.00    -0.274 OA
ATOM     40  C   UNK A   2     145.985 170.668 185.236  0.00  0.00    +0.102 C 
ATOM     41  N   UNK A   2     145.558 169.336 185.657  0.00  0.00    -0.302 N 
ATOM     42  C   UNK A   1     144.247 168.977 185.872  0.00  0.00    +0.234 C 
ATOM     43  O   UNK A   1     143.309 169.763 185.752  0.00  0.00    -0.274 OA
ATOM     44  HA  ALA A   7     147.481 164.869 184.883  0.00  0.00    +0.059 HD
ATOM     45  H   UNK A   1     145.900 166.936 187.209  0.00  0.00    +0.150 HD
ATOM     46  H   UNK A   1     143.377 167.054 185.617  0.00  0.00    +0.060 HD
ATOM     47  H   UNK A   1     143.738 168.419 188.301  0.00  0.00    +0.034 HD
ATOM     48  H   UNK A   1     142.263 167.842 187.565  0.00  0.00    +0.034 HD
ATOM     49  H   UNK A   5     143.917 164.587 191.176  0.00  0.00    +0.166 HD
ATOM     50  H   UNK A   5     143.132 162.134 190.036  0.00  0.00    +0.064 HD
ATOM     51  H   UNK A   5     142.212 161.191 187.928  0.00  0.00    +0.062 HD
ATOM     52  H   UNK A   5     141.773 162.654 185.986  0.00  0.00    +0.062 HD
ATOM     53  H   UNK A   5     142.239 165.072 186.099  0.00  0.00    +0.062 HD
ATOM     54  H   UNK A   5     146.181 166.619 192.390  0.00  0.00    +0.040 HD
ATOM     55  H   UNK A   5     146.310 165.780 190.848  0.00  0.00    +0.040 HD
ATOM     56  H   UNK A   5     148.191 167.362 191.464  0.00  0.00    +0.060 HD
ATOM     57  HD1 HYP A   6     149.139 165.536 190.390  0.00  0.00    +0.049 HD
ATOM     58  HD2 HYP A   6     150.206 166.977 190.454  0.00  0.00    +0.049 HD
ATOM     59  HG  HYP A   6     151.612 165.405 189.222  0.00  0.00    +0.061 HD
ATOM     60  HB1 HYP A   6     151.436 167.517 188.027  0.00  0.00    +0.031 HD
ATOM     61  HB2 HYP A   6     151.067 166.347 186.738  0.00  0.00    +0.031 HD
ATOM     62  HA  HYP A   6     149.337 168.411 187.508  0.00  0.00    +0.060 HD
ATOM     63  H   ALA A   7     147.798 165.263 187.732  0.00  0.00    +0.149 HD
ATOM     64  H   UNK A   5     146.168 169.495 191.217  0.00  0.00    +0.150 HD
ATOM     65  HA  THR A   4     147.171 171.637 192.241  0.00  0.00    +0.062 HD
ATOM     66  H   THR A   4     147.548 172.246 189.395  0.00  0.00    +0.150 HD
ATOM     67  HA  ALA A   3     145.401 173.092 188.568  0.00  0.00    +0.059 HD
ATOM     68  H   ALA A   3     145.809 170.249 187.768  0.00  0.00    +0.149 HD
ATOM     69  H   UNK A   2     147.080 170.627 185.209  0.00  0.00    +0.060 HD
ATOM     70  H   UNK A   2     146.219 168.575 185.517  0.00  0.00    +0.150 HD
ENDROOT
BRANCH   1  71
ATOM     71  CB  ALA A   7     146.391 163.666 186.320  0.00  0.00    -0.038 C 
ATOM     72  HB1 ALA A   7     147.217 162.957 186.442  0.00  0.00    +0.025 HD
ATOM     73  HB2 ALA A   7     145.892 163.787 187.285  0.00  0.00    +0.025 HD
ATOM     74  HB3 ALA A   7     145.668 163.224 185.626  0.00  0.00    +0.025 HD
ENDBRANCH   1  71
BRANCH  36  75
ATOM     75  CB  ALA A   3     143.578 171.973 188.751  0.00  0.00    -0.038 C 
ATOM     76  HB1 ALA A   3     143.138 172.972 188.836  0.00  0.00    +0.025 HD
ATOM     77  HB2 ALA A   3     143.182 171.514 187.838  0.00  0.00    +0.025 HD
ATOM     78  HB3 ALA A   3     143.233 171.375 189.601  0.00  0.00    +0.025 HD
ENDBRANCH  36  75
BRANCH  40  79
ATOM     79  C   UNK A   2     145.455 171.113 183.863  0.00  0.00    +0.005 C 
ATOM     80  H   UNK A   2     145.818 172.139 183.702  0.00  0.00    +0.032 HD
ATOM     81  H   UNK A   2     144.361 171.192 183.884  0.00  0.00    +0.032 HD
BRANCH  79  82
ATOM     82  C   UNK A   2     145.890 170.290 182.631  0.00  0.00    +0.088 C 
BRANCH  82  83
ATOM     83  C   UNK A   2     146.334 171.259 181.526  0.00  0.00    -0.034 C 
ATOM     84  H   UNK A   2     146.260 172.300 181.861  0.00  0.00    +0.026 HD
ATOM     85  H   UNK A   2     147.386 171.098 181.267  0.00  0.00    +0.026 HD
ATOM     86  H   UNK A   2     145.730 171.140 180.620  0.00  0.00    +0.026 HD
ENDBRANCH  82  83
BRANCH  82  87
ATOM     87  C   UNK A   2     144.789 169.368 182.066  0.00  0.00    +0.073 C 
ATOM     88  H   UNK A   2     143.791 169.799 182.202  0.00  0.00    +0.059 HD
ATOM     89  H   UNK A   2     144.946 169.183 180.998  0.00  0.00    +0.059 HD
BRANCH  87  90
ATOM     90  O   UNK A   2     144.854 168.095 182.704  0.00  0.00    -0.392 OA
ATOM     91  H   UNK A   2     143.967 167.692 182.596  0.00  0.00    +0.210 HD
ENDBRANCH  87  90
ENDBRANCH  82  87
BRANCH  82  92
ATOM     92  O   UNK A   2     147.030 169.489 182.977  0.00  0.00    -0.387 OA
ATOM     93  H   UNK A   2     147.659 170.111 183.408  0.00  0.00    +0.210 HD
ENDBRANCH  82  92
ENDBRANCH  79  82
ENDBRANCH  40  79
BRANCH  23  94
ATOM     94  OD  HYP A   6     150.064 164.469 188.248  0.00  0.00    -0.390 OA
ATOM     95  HD  HYP A   6     150.369 163.723 188.799  0.00  0.00    +0.210 HD
ENDBRANCH  23  94
BRANCH  32  96
ATOM     96  CB  THR A   4     149.086 172.342 191.473  0.00  0.00    +0.079 C 
ATOM     97  HB  THR A   4     149.977 171.763 191.196  0.00  0.00    +0.061 HD
BRANCH  96  98
ATOM     98  CG2 THR A   4     149.280 172.935 192.865  0.00  0.00    -0.037 C 
ATOM     99 HG21 THR A   4     149.018 173.998 192.861  0.00  0.00    +0.026 HD
ATOM    100 HG22 THR A   4     150.313 172.834 193.211  0.00  0.00    +0.026 HD
ATOM    101 HG23 THR A   4     148.619 172.453 193.592  0.00  0.00    +0.026 HD
ENDBRANCH  96  98
BRANCH  96 102
ATOM    102  OG1 THR A   4     149.012 173.428 190.534  0.00  0.00    -0.390 OA
ATOM    103  HG1 THR A   4     149.800 173.987 190.658  0.00  0.00    +0.210 HD
ENDBRANCH  96 102
ENDBRANCH  32  96
TORSDOF 12
ENDMDL
MODEL 2
REMARK VINA RESULT:      -6.2      2.788      6.944
REMARK  Name = Phalloidin_conf1
REMARK  12 active torsions:
REMARK  status: ('A' for Active; 'I' for Inactive)
REMARK    1  A    between atoms: CB_1  and  CA_2
REMARK    2  A    between atoms: CG_24  and  OD_30
REMARK    3  A    between atoms: CA_34  and  CB_53
REMARK    4  A    between atoms: CA_38  and  CB_52
REMARK    5  A    between atoms: C_42  and  C_46
REMARK    6  A    between atoms: C_46  and  C_47
REMARK    7  A    between atoms: C_47  and  C_48
REMARK    8  A    between atoms: C_47  and  C_49
REMARK    9  A    between atoms: C_47  and  O_51
REMARK   10  A    between atoms: C_49  and  O_50
REMARK   11  A    between atoms: CB_53  and  CG2_54
REMARK   12  A    between atoms: CB_53  and  OG1_55
REMARK                            x       y       z     vdW  Elec       q    Type
REMARK                         _______ _______ _______ _____ _____    ______ ____
ROOT
ATOM      1  CA  ALA A   7     145.157 172.900 188.070  0.00  0.00    +0.097 C 
ATOM      2  C   ALA A   7     143.967 171.974 187.740  0.00  0.00    +0.234 C 
ATOM      3  O   ALA A   7     142.947 172.389 187.188  0.00  0.00    -0.274 OA
ATOM      4  N   UNK A   1     144.180 170.639 187.995  0.00  0.00    -0.302 N 
ATOM      5  C   UNK A   1     143.264 169.587 187.552  0.00  0.00    +0.103 C 
ATOM      6  C   UNK A   1     144.015 168.353 187.019  0.00  0.00    +0.002 C 
ATOM      7  C   UNK A   1     145.262 168.648 186.227  0.00  0.00    -0.006 A 
ATOM      8  C   UNK A   5     146.529 168.159 186.478  0.00  0.00    +0.078 A 
ATOM      9  N   UNK A   5     147.375 168.610 185.506  0.00  0.00    -0.349 N 
ATOM     10  C   UNK A   5     146.712 169.457 184.654  0.00  0.00    +0.048 A 
ATOM     11  C   UNK A   5     147.187 170.178 183.552  0.00  0.00    -0.038 A 
ATOM     12  C   UNK A   5     146.270 170.962 182.846  0.00  0.00    -0.060 A 
ATOM     13  C   UNK A   5     144.932 171.010 183.223  0.00  0.00    -0.061 A 
ATOM     14  C   UNK A   5     144.472 170.273 184.322  0.00  0.00    -0.052 A 
ATOM     15  C   UNK A   5     145.377 169.485 185.064  0.00  0.00    +0.004 A 
ATOM     16  S   UNK A   5     147.126 167.075 187.689  0.00  0.00    -0.105 S 
ATOM     17  C   UNK A   5     148.397 168.077 188.533  0.00  0.00    +0.027 C 
ATOM     18  C   UNK A   5     148.150 168.329 190.025  0.00  0.00    +0.109 C 
ATOM     19  C   UNK A   5     147.086 169.427 190.257  0.00  0.00    +0.237 C 
ATOM     20  O   UNK A   5     145.879 169.220 190.083  0.00  0.00    -0.274 OA
ATOM     21  N   HYP A   6     147.524 170.648 190.728  0.00  0.00    -0.286 N 
ATOM     22  CD  HYP A   6     148.904 171.083 190.913  0.00  0.00    +0.042 C 
ATOM     23  CG  HYP A   6     148.783 172.565 191.259  0.00  0.00    +0.073 C 
ATOM     24  CB  HYP A   6     147.485 172.620 192.060  0.00  0.00    +0.002 C 
ATOM     25  CA  HYP A   6     146.591 171.579 191.375  0.00  0.00    +0.105 C 
ATOM     26  C   HYP A   6     145.605 172.261 190.417  0.00  0.00    +0.234 C 
ATOM     27  O   HYP A   6     144.571 172.787 190.820  0.00  0.00    -0.274 OA
ATOM     28  N   ALA A   7     146.004 172.316 189.104  0.00  0.00    -0.303 N 
ATOM     29  N   UNK A   5     147.714 167.167 190.785  0.00  0.00    -0.302 N 
ATOM     30  C   THR A   4     147.823 167.151 192.160  0.00  0.00    +0.237 C 
ATOM     31  O   THR A   4     148.523 167.968 192.759  0.00  0.00    -0.274 OA
ATOM     32  CA  THR A   4     147.026 166.032 192.864  0.00  0.00    +0.125 C 
ATOM     33  N   THR A   4     145.601 166.186 192.539  0.00  0.00    -0.300 N 
ATOM     34  C   ALA A   3     145.044 165.714 191.373  0.00  0.00    +0.234 C 
ATOM     35  O   ALA A   3     145.736 165.182 190.508  0.00  0.00    -0.274 OA
ATOM     36  CA  ALA A   3     143.529 165.937 191.260  0.00  0.00    +0.097 C 
ATOM     37  N   ALA A   3     143.253 167.365 191.156  0.00  0.00    -0.303 N 
ATOM     38  C   UNK A   2     142.022 167.880 191.522  0.00  0.00    +0.234 C 
ATOM     39  O   UNK A   2     141.246 167.239 192.229  0.00  0.00    -0.274 OA
ATOM     40  C   UNK A   2     141.779 169.361 191.110  0.00  0.00    +0.102 C 
ATOM     41  N   UNK A   2     142.534 169.692 189.905  0.00  0.00    -0.302 N 
ATOM     42  C   UNK A   1     142.318 169.115 188.674  0.00  0.00    +0.234 C 
ATOM     43  O   UNK A   1     141.476 168.239 188.485  0.00  0.00    -0.274 OA
ATOM     44  HA  ALA A   7     144.748 173.844 188.449  0.00  0.00    +0.059 HD
ATOM     45  H   UNK A   1     144.985 170.363 188.552  0.00  0.00    +0.150 HD
ATOM     46  H   UNK A   1     142.623 169.997 186.764  0.00  0.00    +0.060 HD
ATOM     47  H   UNK A   1     144.272 167.701 187.864  0.00  0.00    +0.034 HD
ATOM     48  H   UNK A   1     143.336 167.759 186.390  0.00  0.00    +0.034 HD
ATOM     49  H   UNK A   5     148.344 168.343 185.417  0.00  0.00    +0.166 HD
ATOM     50  H   UNK A   5     148.226 170.133 183.246  0.00  0.00    +0.064 HD
ATOM     51  H   UNK A   5     146.606 171.536 181.985  0.00  0.00    +0.062 HD
ATOM     52  H   UNK A   5     144.232 171.623 182.661  0.00  0.00    +0.062 HD
ATOM     53  H   UNK A   5     143.422 170.325 184.594  0.00  0.00    +0.062 HD
ATOM     54  H   UNK A   5     149.328 167.509 188.428  0.00  0.00    +0.040 HD
ATOM     55  H   UNK A   5     148.547 169.031 188.015  0.00  0.00    +0.040 HD
ATOM     56  H   UNK A   5     149.103 168.645 190.456  0.00  0.00    +0.060 HD
ATOM     57  HD1 HYP A   6     149.479 170.890 190.002  0.00  0.00    +0.049 HD
ATOM     58  HD2 HYP A   6     149.324 170.517 191.750  0.00  0.00    +0.049 HD
ATOM     59  HG  HYP A   6     149.651 172.936 191.812  0.00  0.00    +0.061 HD
ATOM     60  HB1 HYP A   6     147.682 172.304 193.093  0.00  0.00    +0.031 HD
ATOM     61  HB2 HYP A   6     147.040 173.619 192.079  0.00  0.00    +0.031 HD
ATOM     62  HA  HYP A   6     145.991 171.022 192.106  0.00  0.00    +0.060 HD
ATOM     63  H   ALA A   7     146.947 172.012 188.876  0.00  0.00    +0.149 HD
ATOM     64  H   UNK A   5     147.099 166.484 190.331  0.00  0.00    +0.150 HD
ATOM     65  HA  THR A   4     147.357 165.064 192.467  0.00  0.00    +0.062 HD
ATOM     66  H   THR A   4     144.997 166.637 193.221  0.00  0.00    +0.150 HD
ATOM     67  HA  ALA A   3     143.065 165.548 192.175  0.00  0.00    +0.059 HD
ATOM     68  H   ALA A   3     143.890 167.968 190.640  0.00  0.00    +0.149 HD
ATOM     69  H   UNK A   2     142.234 169.955 191.912  0.00  0.00    +0.060 HD
ATOM     70  H   UNK A   2     143.044 170.573 189.909  0.00  0.00    +0.150 HD
ENDROOT
BRANCH   1  71
ATOM     71  CB  ALA A   7     145.967 173.138 186.803  0.00  0.00    -0.038 C 
ATOM     72  HB1 ALA A   7     145.353 173.592 186.018  0.00  0.00    +0.025 HD
ATOM     73  HB2 ALA A   7     146.817 173.797 187.003  0.00  0.00    +0.025 HD
ATOM     74  HB3 ALA A   7     146.366 172.194 186.415  0.00  0.00    +0.025 HD
ENDBRANCH   1  71
BRANCH  36  75
ATOM     75  CB  ALA A   3     142.953 165.193 190.061  0.00  0.00    -0.038 C 
ATOM     76  HB1 ALA A   3     143.322 165.618 189.121  0.00  0.00    +0.025 HD
ATOM     77  HB2 ALA A   3     143.235 164.134 190.077  0.00  0.00    +0.025 HD
ATOM     78  HB3 ALA A   3     141.860 165.247 190.053  0.00  0.00    +0.025 HD
ENDBRANCH  36  75
BRANCH  40  79
ATOM     79  C   UNK A   2     140.275 169.668 191.036  0.00  0.00    +0.005 C 
ATOM     80  H   UNK A   2     139.869 169.503 192.045  0.00  0.00    +0.032 HD
ATOM     81  H   UNK A   2     139.767 168.935 190.396  0.00  0.00    +0.032 HD
BRANCH  79  82
ATOM     82  C   UNK A   2     139.859 171.094 190.617  0.00  0.00    +0.088 C 
BRANCH  82  83
ATOM     83  C   UNK A   2     138.719 171.562 191.532  0.00  0.00    -0.034 C 
ATOM     84  H   UNK A   2     138.588 172.649 191.476  0.00  0.00    +0.026 HD
ATOM     85  H   UNK A   2     137.764 171.125 191.220  0.00  0.00    +0.026 HD
ATOM     86  H   UNK A   2     138.903 171.287 192.576  0.00  0.00    +0.026 HD
ENDBRANCH  82  83
BRANCH  82  87
ATOM     87  C   UNK A   2     139.394 171.212 189.150  0.00  0.00    +0.073 C 
ATOM     88  H   UNK A   2     139.136 170.236 188.727  0.00  0.00    +0.059 HD
ATOM     89  H   UNK A   2     138.521 171.869 189.070  0.00  0.00    +0.059 HD
BRANCH  87  90
ATOM     90  O   UNK A   2     140.421 171.819 188.368  0.00  0.00    -0.392 OA
ATOM     91  H   UNK A   2     140.371 171.400 187.483  0.00  0.00    +0.210 HD
ENDBRANCH  87  90
ENDBRANCH  82  87
BRANCH  82  92
ATOM     92  O   UNK A   2     140.964 171.988 190.825  0.00  0.00    -0.387 OA
ATOM     93  H   UNK A   2     141.622 171.747 190.135  0.00  0.00    +0.210 HD
ENDBRANCH  82  92
ENDBRANCH  79  82
ENDBRANCH  40  79
BRANCH  23  94
ATOM     94  OD  HYP A   6     148.659 173.320 190.054  0.00  0.00    -0.390 OA
ATOM     95  HD  HYP A   6     149.409 173.077 189.478  0.00  0.00    +0.210 HD
ENDBRANCH  23  94
BRANCH  32  96
ATOM     96  CB  THR A   4     147.234 166.076 194.395  0.00  0.00    +0.079 C 
ATOM     97  HB  THR A   4     148.273 165.827 194.645  0.00  0.00    +0.061 HD
BRANCH  96  98
ATOM     98  CG2 THR A   4     146.294 165.136 195.141  0.00  0.00    -0.037 C 
ATOM     99 HG21 THR A   4     146.663 164.964 196.158  0.00  0.00    +0.026 HD
ATOM    100 HG22 THR A   4     146.200 164.169 194.638  0.00  0.00    +0.026 HD
ATOM    101 HG23 THR A   4     145.296 165.576 195.241  0.00  0.00    +0.026 HD
ENDBRANCH  96  98
BRANCH  96 102
ATOM    102  OG1 THR A   4     147.015 167.408 194.889  0.00  0.00    -0.390 OA
ATOM    103  HG1 THR A   4     146.483 167.890 194.230  0.00  0.00    +0.210 HD
ENDBRANCH  96 102
ENDBRANCH  32  96
TORSDOF 12
ENDMDL
MODEL 3
REMARK VINA RESULT:      -6.0      0.872      1.255
REMARK  Name = Phalloidin_conf1
REMARK  12 active torsions:
REMARK  status: ('A' for Active; 'I' for Inactive)
REMARK    1  A    between atoms: CB_1  and  CA_2
REMARK    2  A    between atoms: CG_24  and  OD_30
REMARK    3  A    between atoms: CA_34  and  CB_53
REMARK    4  A    between atoms: CA_38  and  CB_52
REMARK    5  A    between atoms: C_42  and  C_46
REMARK    6  A    between atoms: C_46  and  C_47
REMARK    7  A    between atoms: C_47  and  C_48
REMARK    8  A    between atoms: C_47  and  C_49
REMARK    9  A    between atoms: C_47  and  O_51
REMARK   10  A    between atoms: C_49  and  O_50
REMARK   11  A    between atoms: CB_53  and  CG2_54
REMARK   12  A    between atoms: CB_53  and  OG1_55
REMARK                            x       y       z     vdW  Elec       q    Type
REMARK                         _______ _______ _______ _____ _____    ______ ____
ROOT
ATOM      1  CA  ALA A   7     146.310 165.267 185.609  0.00  0.00    +0.097 C 
ATOM      2  C   ALA A   7     145.085 166.173 185.366  0.00  0.00    +0.234 C 
ATOM      3  O   ALA A   7     144.381 166.067 184.360  0.00  0.00    -0.274 OA
ATOM      4  N   UNK A   1     144.768 167.016 186.405  0.00  0.00    -0.302 N 
ATOM      5  C   UNK A   1     143.527 167.789 186.455  0.00  0.00    +0.103 C 
ATOM      6  C   UNK A   1     142.909 167.801 187.865  0.00  0.00    +0.002 C 
ATOM      7  C   UNK A   1     143.022 166.508 188.630  0.00  0.00    -0.006 A 
ATOM      8  C   UNK A   5     143.577 166.342 189.883  0.00  0.00    +0.078 A 
ATOM      9  N   UNK A   5     143.439 165.036 190.257  0.00  0.00    -0.349 N 
ATOM     10  C   UNK A   5     142.871 164.309 189.241  0.00  0.00    +0.048 A 
ATOM     11  C   UNK A   5     142.583 162.941 189.164  0.00  0.00    -0.038 A 
ATOM     12  C   UNK A   5     141.979 162.470 187.995  0.00  0.00    -0.060 A 
ATOM     13  C   UNK A   5     141.665 163.337 186.953  0.00  0.00    -0.061 A 
ATOM     14  C   UNK A   5     141.949 164.705 187.052  0.00  0.00    -0.052 A 
ATOM     15  C   UNK A   5     142.574 165.208 188.213  0.00  0.00    +0.004 A 
ATOM     16  S   UNK A   5     144.280 167.472 190.991  0.00  0.00    -0.105 S 
ATOM     17  C   UNK A   5     145.968 166.816 191.217  0.00  0.00    +0.027 C 
ATOM     18  C   UNK A   5     147.101 167.756 190.791  0.00  0.00    +0.109 C 
ATOM     19  C   UNK A   5     147.283 167.782 189.255  0.00  0.00    +0.237 C 
ATOM     20  O   UNK A   5     146.496 168.376 188.509  0.00  0.00    -0.274 OA
ATOM     21  N   HYP A   6     148.401 167.160 188.737  0.00  0.00    -0.286 N 
ATOM     22  CD  HYP A   6     149.381 166.355 189.458  0.00  0.00    +0.042 C 
ATOM     23  CG  HYP A   6     150.263 165.771 188.357  0.00  0.00    +0.073 C 
ATOM     24  CB  HYP A   6     150.293 166.889 187.319  0.00  0.00    +0.002 C 
ATOM     25  CA  HYP A   6     148.883 167.488 187.390  0.00  0.00    +0.105 C 
ATOM     26  C   HYP A   6     148.009 166.947 186.251  0.00  0.00    +0.234 C 
ATOM     27  O   HYP A   6     148.074 167.403 185.113  0.00  0.00    -0.274 OA
ATOM     28  N   ALA A   7     147.223 165.869 186.575  0.00  0.00    -0.303 N 
ATOM     29  N   UNK A   5     146.945 169.142 191.209  0.00  0.00    -0.302 N 
ATOM     30  C   THR A   4     148.033 169.991 191.231  0.00  0.00    +0.237 C 
ATOM     31  O   THR A   4     149.185 169.561 191.171  0.00  0.00    -0.274 OA
ATOM     32  CA  THR A   4     147.686 171.490 191.356  0.00  0.00    +0.125 C 
ATOM     33  N   THR A   4     146.847 171.882 190.214  0.00  0.00    -0.300 N 
ATOM     34  C   ALA A   3     145.489 171.671 190.177  0.00  0.00    +0.234 C 
ATOM     35  O   ALA A   3     144.911 171.085 191.089  0.00  0.00    -0.274 OA
ATOM     36  CA  ALA A   3     144.800 172.204 188.912  0.00  0.00    +0.097 C 
ATOM     37  N   ALA A   3     145.244 171.435 187.755  0.00  0.00    -0.303 N 
ATOM     38  C   UNK A   2     145.185 171.969 186.481  0.00  0.00    +0.234 C 
ATOM     39  O   UNK A   2     145.069 173.181 186.300  0.00  0.00    -0.274 OA
ATOM     40  C   UNK A   2     145.435 170.954 185.328  0.00  0.00    +0.102 C 
ATOM     41  N   UNK A   2     145.022 169.610 185.726  0.00  0.00    -0.302 N 
ATOM     42  C   UNK A   1     143.724 169.254 186.015  0.00  0.00    +0.234 C 
ATOM     43  O   UNK A   1     142.790 170.053 185.988  0.00  0.00    -0.274 OA
ATOM     44  HA  ALA A   7     146.839 165.160 184.654  0.00  0.00    +0.059 HD
ATOM     45  H   UNK A   1     145.440 167.149 187.158  0.00  0.00    +0.150 HD
ATOM     46  H   UNK A   1     142.818 167.350 185.746  0.00  0.00    +0.060 HD
ATOM     47  H   UNK A   1     143.373 168.606 188.449  0.00  0.00    +0.034 HD
ATOM     48  H   UNK A   1     141.845 168.071 187.792  0.00  0.00    +0.034 HD
ATOM     49  H   UNK A   5     143.700 164.664 191.157  0.00  0.00    +0.166 HD
ATOM     50  H   UNK A   5     142.814 162.264 189.979  0.00  0.00    +0.064 HD
ATOM     51  H   UNK A   5     141.743 161.412 187.903  0.00  0.00    +0.062 HD
ATOM     52  H   UNK A   5     141.192 162.953 186.053  0.00  0.00    +0.062 HD
ATOM     53  H   UNK A   5     141.692 165.361 186.226  0.00  0.00    +0.062 HD
ATOM     54  H   UNK A   5     146.063 166.627 192.293  0.00  0.00    +0.040 HD
ATOM     55  H   UNK A   5     146.079 165.848 190.715  0.00  0.00    +0.040 HD
ATOM     56  H   UNK A   5     148.015 167.389 191.263  0.00  0.00    +0.060 HD
ATOM     57  HD1 HYP A   6     148.869 165.597 190.058  0.00  0.00    +0.049 HD
ATOM     58  HD2 HYP A   6     149.953 167.025 190.106  0.00  0.00    +0.049 HD
ATOM     59  HG  HYP A   6     151.256 165.491 188.723  0.00  0.00    +0.061 HD
ATOM     60  HB1 HYP A   6     151.025 167.649 187.624  0.00  0.00    +0.031 HD
ATOM     61  HB2 HYP A   6     150.557 166.533 186.319  0.00  0.00    +0.031 HD
ATOM     62  HA  HYP A   6     148.905 168.580 187.282  0.00  0.00    +0.060 HD
ATOM     63  H   ALA A   7     147.349 165.440 187.488  0.00  0.00    +0.149 HD
ATOM     64  H   UNK A   5     146.004 169.546 191.235  0.00  0.00    +0.150 HD
ATOM     65  HA  THR A   4     147.098 171.638 192.270  0.00  0.00    +0.062 HD
ATOM     66  H   THR A   4     147.290 172.354 189.430  0.00  0.00    +0.150 HD
ATOM     67  HA  ALA A   3     145.102 173.251 188.783  0.00  0.00    +0.059 HD
ATOM     68  H   ALA A   3     145.423 170.438 187.849  0.00  0.00    +0.149 HD
ATOM     69  H   UNK A   2     146.525 170.905 185.227  0.00  0.00    +0.060 HD
ATOM     70  H   UNK A   2     145.663 168.849 185.513  0.00  0.00    +0.150 HD
ENDROOT
BRANCH   1  71
ATOM     71  CB  ALA A   7     145.834 163.911 186.113  0.00  0.00    -0.038 C 
ATOM     72  HB1 ALA A   7     145.471 163.287 185.290  0.00  0.00    +0.025 HD
ATOM     73  HB2 ALA A   7     146.643 163.380 186.622  0.00  0.00    +0.025 HD
ATOM     74  HB3 ALA A   7     145.015 164.031 186.831  0.00  0.00    +0.025 HD
ENDBRANCH   1  71
BRANCH  36  75
ATOM     75  CB  ALA A   3     143.283 172.141 189.045  0.00  0.00    -0.038 C 
ATOM     76  HB1 ALA A   3     142.808 172.971 188.512  0.00  0.00    +0.025 HD
ATOM     77  HB2 ALA A   3     142.886 171.209 188.627  0.00  0.00    +0.025 HD
ATOM     78  HB3 ALA A   3     142.978 172.192 190.095  0.00  0.00    +0.025 HD
ENDBRANCH  36  75
BRANCH  40  79
ATOM     79  C   UNK A   2     144.819 171.457 184.013  0.00  0.00    +0.005 C 
ATOM     80  H   UNK A   2     144.130 172.272 184.278  0.00  0.00    +0.032 HD
ATOM     81  H   UNK A   2     144.189 170.679 183.564  0.00  0.00    +0.032 HD
BRANCH  79  82
ATOM     82  C   UNK A   2     145.783 172.018 182.945  0.00  0.00    +0.088 C 
BRANCH  82  83
ATOM     83  C   UNK A   2     147.176 171.415 183.176  0.00  0.00    -0.034 C 
ATOM     84  H   UNK A   2     147.934 171.932 182.575  0.00  0.00    +0.026 HD
ATOM     85  H   UNK A   2     147.484 171.535 184.221  0.00  0.00    +0.026 HD
ATOM     86  H   UNK A   2     147.199 170.349 182.927  0.00  0.00    +0.026 HD
ENDBRANCH  82  83
BRANCH  82  87
ATOM     87  C   UNK A   2     145.904 173.557 182.949  0.00  0.00    +0.073 C 
ATOM     88  H   UNK A   2     146.257 173.938 181.986  0.00  0.00    +0.059 HD
ATOM     89  H   UNK A   2     144.939 174.023 183.176  0.00  0.00    +0.059 HD
BRANCH  87  90
ATOM     90  O   UNK A   2     146.796 173.965 183.985  0.00  0.00    -0.392 OA
ATOM     91  H   UNK A   2     147.601 174.295 183.533  0.00  0.00    +0.210 HD
ENDBRANCH  87  90
ENDBRANCH  82  87
BRANCH  82  92
ATOM     92  O   UNK A   2     145.347 171.593 181.645  0.00  0.00    -0.387 OA
ATOM     93  H   UNK A   2     145.918 170.824 181.422  0.00  0.00    +0.210 HD
ENDBRANCH  82  92
ENDBRANCH  79  82
ENDBRANCH  40  79
BRANCH  23  94
ATOM     94  OD  HYP A   6     149.636 164.607 187.820  0.00  0.00    -0.390 OA
ATOM     95  HD  HYP A   6     150.216 163.846 188.013  0.00  0.00    +0.210 HD
ENDBRANCH  23  94
BRANCH  32  96
ATOM     96  CB  THR A   4     148.965 172.357 191.403  0.00  0.00    +0.079 C 
ATOM     97  HB  THR A   4     149.843 171.755 191.132  0.00  0.00    +0.061 HD
BRANCH  96  98
ATOM     98  CG2 THR A   4     149.190 172.995 192.769  0.00  0.00    -0.037 C 
ATOM     99 HG21 THR A   4     148.343 172.778 193.430  0.00  0.00    +0.026 HD
ATOM    100 HG22 THR A   4     149.305 174.080 192.700  0.00  0.00    +0.026 HD
ATOM    101 HG23 THR A   4     150.079 172.579 193.255  0.00  0.00    +0.026 HD
ENDBRANCH  96  98
BRANCH  96 102
ATOM    102  OG1 THR A   4     148.890 173.409 190.427  0.00  0.00    -0.390 OA
ATOM    103  HG1 THR A   4     147.985 173.421 190.066  0.00  0.00    +0.210 HD
ENDBRANCH  96 102
ENDBRANCH  32  96
TORSDOF 12
ENDMDL
MODEL 4
REMARK VINA RESULT:      -5.7      2.689      6.933
REMARK  Name = Phalloidin_conf1
REMARK  12 active torsions:
REMARK  status: ('A' for Active; 'I' for Inactive)
REMARK    1  A    between atoms: CB_1  and  CA_2
REMARK    2  A    between atoms: CG_24  and  OD_30
REMARK    3  A    between atoms: CA_34  and  CB_53
REMARK    4  A    between atoms: CA_38  and  CB_52
REMARK    5  A    between atoms: C_42  and  C_46
REMARK    6  A    between atoms: C_46  and  C_47
REMARK    7  A    between atoms: C_47  and  C_48
REMARK    8  A    between atoms: C_47  and  C_49
REMARK    9  A    between atoms: C_47  and  O_51
REMARK   10  A    between atoms: C_49  and  O_50
REMARK   11  A    between atoms: CB_53  and  CG2_54
REMARK   12  A    between atoms: CB_53  and  OG1_55
REMARK                            x       y       z     vdW  Elec       q    Type
REMARK                         _______ _______ _______ _____ _____    ______ ____
ROOT
ATOM      1  CA  ALA A   7     148.224 169.125 190.707  0.00  0.00    +0.097 C 
ATOM      2  C   ALA A   7     148.312 167.674 190.190  0.00  0.00    +0.234 C 
ATOM      3  O   ALA A   7     149.390 167.109 190.002  0.00  0.00    -0.274 OA
ATOM      4  N   UNK A   1     147.106 167.023 190.074  0.00  0.00    -0.302 N 
ATOM      5  C   UNK A   1     146.996 165.588 189.811  0.00  0.00    +0.103 C 
ATOM      6  C   UNK A   1     145.885 164.929 190.650  0.00  0.00    +0.002 C 
ATOM      7  C   UNK A   1     145.743 165.451 192.056  0.00  0.00    -0.006 A 
ATOM      8  C   UNK A   5     144.595 165.960 192.631  0.00  0.00    +0.078 A 
ATOM      9  N   UNK A   5     144.856 166.272 193.934  0.00  0.00    -0.349 N 
ATOM     10  C   UNK A   5     146.181 166.054 194.219  0.00  0.00    +0.048 A 
ATOM     11  C   UNK A   5     146.896 166.273 195.402  0.00  0.00    -0.038 A 
ATOM     12  C   UNK A   5     148.253 165.940 195.412  0.00  0.00    -0.060 A 
ATOM     13  C   UNK A   5     148.864 165.398 194.285  0.00  0.00    -0.061 A 
ATOM     14  C   UNK A   5     148.130 165.174 193.113  0.00  0.00    -0.052 A 
ATOM     15  C   UNK A   5     146.762 165.515 193.068  0.00  0.00    +0.004 A 
ATOM     16  S   UNK A   5     142.988 166.155 192.016  0.00  0.00    -0.105 S 
ATOM     17  C   UNK A   5     142.710 167.951 192.184  0.00  0.00    +0.027 C 
ATOM     18  C   UNK A   5     142.439 168.699 190.874  0.00  0.00    +0.109 C 
ATOM     19  C   UNK A   5     143.738 168.945 190.070  0.00  0.00    +0.237 C 
ATOM     20  O   UNK A   5     144.306 168.040 189.447  0.00  0.00    -0.274 OA
ATOM     21  N   HYP A   6     144.220 170.236 190.020  0.00  0.00    -0.286 N 
ATOM     22  CD  HYP A   6     143.723 171.397 190.751  0.00  0.00    +0.042 C 
ATOM     23  CG  HYP A   6     144.751 172.488 190.459  0.00  0.00    +0.073 C 
ATOM     24  CB  HYP A   6     145.176 172.177 189.028  0.00  0.00    +0.002 C 
ATOM     25  CA  HYP A   6     145.159 170.644 188.968  0.00  0.00    +0.105 C 
ATOM     26  C   HYP A   6     146.578 170.082 189.128  0.00  0.00    +0.234 C 
ATOM     27  O   HYP A   6     147.368 170.044 188.189  0.00  0.00    -0.274 OA
ATOM     28  N   ALA A   7     146.923 169.712 190.404  0.00  0.00    -0.303 N 
ATOM     29  N   UNK A   5     141.512 168.040 189.966  0.00  0.00    -0.302 N 
ATOM     30  C   THR A   4     140.897 168.754 188.958  0.00  0.00    +0.237 C 
ATOM     31  O   THR A   4     140.887 169.985 188.956  0.00  0.00    -0.274 OA
ATOM     32  CA  THR A   4     140.219 167.894 187.870  0.00  0.00    +0.125 C 
ATOM     33  N   THR A   4     141.233 167.034 187.243  0.00  0.00    -0.300 N 
ATOM     34  C   ALA A   3     141.647 165.842 187.790  0.00  0.00    +0.234 C 
ATOM     35  O   ALA A   3     141.220 165.460 188.878  0.00  0.00    -0.274 OA
ATOM     36  CA  ALA A   3     142.676 165.080 186.943  0.00  0.00    +0.097 C 
ATOM     37  N   ALA A   3     143.926 165.830 186.905  0.00  0.00    -0.303 N 
ATOM     38  C   UNK A   2     144.829 165.656 185.872  0.00  0.00    +0.234 C 
ATOM     39  O   UNK A   2     144.494 165.128 184.812  0.00  0.00    -0.274 OA
ATOM     40  C   UNK A   2     146.222 166.311 186.097  0.00  0.00    +0.102 C 
ATOM     41  N   UNK A   2     146.537 166.379 187.521  0.00  0.00    -0.302 N 
ATOM     42  C   UNK A   1     146.713 165.278 188.328  0.00  0.00    +0.234 C 
ATOM     43  O   UNK A   1     146.594 164.124 187.919  0.00  0.00    -0.274 OA
ATOM     44  HA  ALA A   7     148.996 169.709 190.190  0.00  0.00    +0.059 HD
ATOM     45  H   UNK A   1     146.244 167.562 190.129  0.00  0.00    +0.150 HD
ATOM     46  H   UNK A   1     147.959 165.120 190.043  0.00  0.00    +0.060 HD
ATOM     47  H   UNK A   1     144.928 165.045 190.125  0.00  0.00    +0.034 HD
ATOM     48  H   UNK A   1     146.061 163.845 190.696  0.00  0.00    +0.034 HD
ATOM     49  H   UNK A   5     144.169 166.598 194.597  0.00  0.00    +0.166 HD
ATOM     50  H   UNK A   5     146.421 166.684 196.286  0.00  0.00    +0.064 HD
ATOM     51  H   UNK A   5     148.838 166.100 196.315  0.00  0.00    +0.062 HD
ATOM     52  H   UNK A   5     149.920 165.141 194.312  0.00  0.00    +0.062 HD
ATOM     53  H   UNK A   5     148.629 164.746 192.249  0.00  0.00    +0.062 HD
ATOM     54  H   UNK A   5     141.826 168.047 192.825  0.00  0.00    +0.040 HD
ATOM     55  H   UNK A   5     143.542 168.425 192.718  0.00  0.00    +0.040 HD
ATOM     56  H   UNK A   5     141.987 169.657 191.142  0.00  0.00    +0.060 HD
ATOM     57  HD1 HYP A   6     143.630 171.154 191.813  0.00  0.00    +0.049 HD
ATOM     58  HD2 HYP A   6     142.744 171.659 190.337  0.00  0.00    +0.049 HD
ATOM     59  HG  HYP A   6     144.337 173.494 190.581  0.00  0.00    +0.061 HD
ATOM     60  HB1 HYP A   6     144.427 172.574 188.331  0.00  0.00    +0.031 HD
ATOM     61  HB2 HYP A   6     146.151 172.604 188.772  0.00  0.00    +0.031 HD
ATOM     62  HA  HYP A   6     144.781 170.284 188.002  0.00  0.00    +0.060 HD
ATOM     63  H   ALA A   7     146.278 169.931 191.158  0.00  0.00    +0.149 HD
ATOM     64  H   UNK A   5     141.517 167.017 189.912  0.00  0.00    +0.150 HD
ATOM     65  HA  THR A   4     139.479 167.242 188.351  0.00  0.00    +0.062 HD
ATOM     66  H   THR A   4     141.624 167.323 186.350  0.00  0.00    +0.150 HD
ATOM     67  HA  ALA A   3     142.277 164.999 185.925  0.00  0.00    +0.059 HD
ATOM     68  H   ALA A   3     144.233 166.345 187.727  0.00  0.00    +0.149 HD
ATOM     69  H   UNK A   2     146.100 167.352 185.776  0.00  0.00    +0.060 HD
ATOM     70  H   UNK A   2     146.913 167.259 187.869  0.00  0.00    +0.150 HD
ENDROOT
BRANCH   1  71
ATOM     71  CB  ALA A   7     148.464 169.133 192.211  0.00  0.00    -0.038 C 
ATOM     72  HB1 ALA A   7     148.051 168.235 192.682  0.00  0.00    +0.025 HD
ATOM     73  HB2 ALA A   7     149.534 169.181 192.434  0.00  0.00    +0.025 HD
ATOM     74  HB3 ALA A   7     147.990 170.005 192.674  0.00  0.00    +0.025 HD
ENDBRANCH   1  71
BRANCH  36  75
ATOM     75  CB  ALA A   3     142.911 163.679 187.495  0.00  0.00    -0.038 C 
ATOM     76  HB1 ALA A   3     143.820 163.644 188.105  0.00  0.00    +0.025 HD
ATOM     77  HB2 ALA A   3     142.076 163.356 188.128  0.00  0.00    +0.025 HD
ATOM     78  HB3 ALA A   3     143.016 162.950 186.685  0.00  0.00    +0.025 HD
ENDBRANCH  36  75
BRANCH  40  79
ATOM     79  C   UNK A   2     147.293 165.630 185.230  0.00  0.00    +0.005 C 
ATOM     80  H   UNK A   2     146.886 165.576 184.210  0.00  0.00    +0.032 HD
ATOM     81  H   UNK A   2     147.433 164.588 185.543  0.00  0.00    +0.032 HD
BRANCH  79  82
ATOM     82  C   UNK A   2     148.669 166.324 185.122  0.00  0.00    +0.088 C 
BRANCH  82  83
ATOM     83  C   UNK A   2     149.669 165.569 186.009  0.00  0.00    -0.034 C 
ATOM     84  H   UNK A   2     150.571 165.302 185.446  0.00  0.00    +0.026 HD
ATOM     85  H   UNK A   2     150.006 166.199 186.840  0.00  0.00    +0.026 HD
ATOM     86  H   UNK A   2     149.231 164.655 186.421  0.00  0.00    +0.026 HD
ENDBRANCH  82  83
BRANCH  82  87
ATOM     87  C   UNK A   2     148.662 167.810 185.540  0.00  0.00    +0.073 C 
ATOM     88  H   UNK A   2     149.270 168.423 184.867  0.00  0.00    +0.059 HD
ATOM     89  H   UNK A   2     147.641 168.208 185.546  0.00  0.00    +0.059 HD
BRANCH  87  90
ATOM     90  O   UNK A   2     149.146 167.935 186.875  0.00  0.00    -0.392 OA
ATOM     91  H   UNK A   2     149.895 168.567 186.833  0.00  0.00    +0.210 HD
ENDBRANCH  87  90
ENDBRANCH  82  87
BRANCH  82  92
ATOM     92  O   UNK A   2     149.142 166.226 183.770  0.00  0.00    -0.387 OA
ATOM     93  H   UNK A   2     150.078 166.526 183.804  0.00  0.00    +0.210 HD
ENDBRANCH  82  92
ENDBRANCH  79  82
ENDBRANCH  40  79
BRANCH  23  94
ATOM     94  OD  HYP A   6     145.855 172.343 191.352  0.00  0.00    -0.390 OA
ATOM     95  HD  HYP A   6     146.449 173.104 191.209  0.00  0.00    +0.210 HD
ENDBRANCH  23  94
BRANCH  32  96
ATOM     96  CB  THR A   4     139.534 168.778 186.805  0.00  0.00    +0.079 C 
ATOM     97  HB  THR A   4     138.873 169.511 187.286  0.00  0.00    +0.061 HD
BRANCH  96  98
ATOM     98  CG2 THR A   4     138.735 167.964 185.793  0.00  0.00    -0.037 C 
ATOM     99 HG21 THR A   4     137.831 167.562 186.263  0.00  0.00    +0.026 HD
ATOM    100 HG22 THR A   4     139.316 167.129 185.391  0.00  0.00    +0.026 HD
ATOM    101 HG23 THR A   4     138.401 168.591 184.960  0.00  0.00    +0.026 HD
ENDBRANCH  96  98
BRANCH  96 102
ATOM    102  OG1 THR A   4     140.515 169.543 186.085  0.00  0.00    -0.390 OA
ATOM    103  HG1 THR A   4     141.140 169.916 186.733  0.00  0.00    +0.210 HD
ENDBRANCH  96 102
ENDBRANCH  32  96
TORSDOF 12
ENDMDL
MODEL 5
REMARK VINA RESULT:      -5.5      2.899      6.768
REMARK  Name = Phalloidin_conf1
REMARK  12 active torsions:
REMARK  status: ('A' for Active; 'I' for Inactive)
REMARK    1  A    between atoms: CB_1  and  CA_2
REMARK    2  A    between atoms: CG_24  and  OD_30
REMARK    3  A    between atoms: CA_34  and  CB_53
REMARK    4  A    between atoms: CA_38  and  CB_52
REMARK    5  A    between atoms: C_42  and  C_46
REMARK    6  A    between atoms: C_46  and  C_47
REMARK    7  A    between atoms: C_47  and  C_48
REMARK    8  A    between atoms: C_47  and  C_49
REMARK    9  A    between atoms: C_47  and  O_51
REMARK   10  A    between atoms: C_49  and  O_50
REMARK   11  A    between atoms: CB_53  and  CG2_54
REMARK   12  A    between atoms: CB_53  and  OG1_55
REMARK                            x       y       z     vdW  Elec       q    Type
REMARK                         _______ _______ _______ _____ _____    ______ ____
ROOT
ATOM      1  CA  ALA A   7     145.643 164.892 185.385  0.00  0.00    +0.097 C 
ATOM      2  C   ALA A   7     147.085 165.389 185.159  0.00  0.00    +0.234 C 
ATOM      3  O   ALA A   7     147.682 165.210 184.096  0.00  0.00    -0.274 OA
ATOM      4  N   UNK A   1     147.607 166.149 186.180  0.00  0.00    -0.302 N 
ATOM      5  C   UNK A   1     148.866 166.885 186.064  0.00  0.00    +0.103 C 
ATOM      6  C   UNK A   1     148.780 168.283 186.705  0.00  0.00    +0.002 C 
ATOM      7  C   UNK A   1     147.468 168.999 186.519  0.00  0.00    -0.006 A 
ATOM      8  C   UNK A   5     146.661 169.508 187.517  0.00  0.00    +0.078 A 
ATOM      9  N   UNK A   5     145.592 170.133 186.943  0.00  0.00    -0.349 N 
ATOM     10  C   UNK A   5     145.628 169.982 185.580  0.00  0.00    +0.048 A 
ATOM     11  C   UNK A   5     144.725 170.414 184.601  0.00  0.00    -0.038 A 
ATOM     12  C   UNK A   5     145.028 170.129 183.267  0.00  0.00    -0.060 A 
ATOM     13  C   UNK A   5     146.195 169.450 182.929  0.00  0.00    -0.061 A 
ATOM     14  C   UNK A   5     147.093 169.036 183.920  0.00  0.00    -0.052 A 
ATOM     15  C   UNK A   5     146.806 169.294 185.277  0.00  0.00    +0.004 A 
ATOM     16  S   UNK A   5     146.844 169.546 189.239  0.00  0.00    -0.105 S 
ATOM     17  C   UNK A   5     145.356 168.663 189.819  0.00  0.00    +0.027 C 
ATOM     18  C   UNK A   5     145.622 167.386 190.624  0.00  0.00    +0.109 C 
ATOM     19  C   UNK A   5     146.008 166.198 189.712  0.00  0.00    +0.237 C 
ATOM     20  O   UNK A   5     147.123 166.110 189.185  0.00  0.00    -0.274 OA
ATOM     21  N   HYP A   6     145.076 165.194 189.547  0.00  0.00    -0.286 N 
ATOM     22  CD  HYP A   6     143.699 165.175 190.029  0.00  0.00    +0.042 C 
ATOM     23  CG  HYP A   6     143.099 163.926 189.388  0.00  0.00    +0.073 C 
ATOM     24  CB  HYP A   6     144.278 162.959 189.362  0.00  0.00    +0.002 C 
ATOM     25  CA  HYP A   6     145.484 163.864 189.078  0.00  0.00    +0.105 C 
ATOM     26  C   HYP A   6     145.867 163.802 187.594  0.00  0.00    +0.234 C 
ATOM     27  O   HYP A   6     146.536 162.880 187.136  0.00  0.00    -0.274 OA
ATOM     28  N   ALA A   7     145.338 164.797 186.808  0.00  0.00    -0.303 N 
ATOM     29  N   UNK A   5     146.673 167.494 191.625  0.00  0.00    -0.302 N 
ATOM     30  C   THR A   4     146.755 166.576 192.652  0.00  0.00    +0.237 C 
ATOM     31  O   THR A   4     145.818 165.822 192.918  0.00  0.00    -0.274 OA
ATOM     32  CA  THR A   4     148.086 166.590 193.434  0.00  0.00    +0.125 C 
ATOM     33  N   THR A   4     149.188 166.307 192.503  0.00  0.00    -0.300 N 
ATOM     34  C   ALA A   3     149.759 167.271 191.705  0.00  0.00    +0.234 C 
ATOM     35  O   ALA A   3     149.330 168.422 191.692  0.00  0.00    -0.274 OA
ATOM     36  CA  ALA A   3     150.930 166.769 190.847  0.00  0.00    +0.097 C 
ATOM     37  N   ALA A   3     150.434 165.825 189.851  0.00  0.00    -0.303 N 
ATOM     38  C   UNK A   2     151.272 164.879 189.289  0.00  0.00    +0.234 C 
ATOM     39  O   UNK A   2     152.346 164.584 189.814  0.00  0.00    -0.274 OA
ATOM     40  C   UNK A   2     150.685 164.125 188.062  0.00  0.00    +0.102 C 
ATOM     41  N   UNK A   2     149.725 164.965 187.351  0.00  0.00    -0.302 N 
ATOM     42  C   UNK A   1     150.050 166.141 186.714  0.00  0.00    +0.234 C 
ATOM     43  O   UNK A   1     151.188 166.606 186.708  0.00  0.00    -0.274 OA
ATOM     44  HA  ALA A   7     145.563 163.890 184.945  0.00  0.00    +0.059 HD
ATOM     45  H   UNK A   1     147.126 166.172 187.077  0.00  0.00    +0.150 HD
ATOM     46  H   UNK A   1     149.112 166.983 185.001  0.00  0.00    +0.060 HD
ATOM     47  H   UNK A   1     148.992 168.194 187.779  0.00  0.00    +0.034 HD
ATOM     48  H   UNK A   1     149.583 168.916 186.302  0.00  0.00    +0.034 HD
ATOM     49  H   UNK A   5     144.886 170.648 187.449  0.00  0.00    +0.166 HD
ATOM     50  H   UNK A   5     143.821 170.954 184.859  0.00  0.00    +0.064 HD
ATOM     51  H   UNK A   5     144.346 170.450 182.482  0.00  0.00    +0.062 HD
ATOM     52  H   UNK A   5     146.416 169.240 181.885  0.00  0.00    +0.062 HD
ATOM     53  H   UNK A   5     147.998 168.510 183.630  0.00  0.00    +0.062 HD
ATOM     54  H   UNK A   5     144.832 169.376 190.466  0.00  0.00    +0.040 HD
ATOM     55  H   UNK A   5     144.684 168.442 188.982  0.00  0.00    +0.040 HD
ATOM     56  H   UNK A   5     144.700 167.151 191.162  0.00  0.00    +0.060 HD
ATOM     57  HD1 HYP A   6     143.193 166.102 189.742  0.00  0.00    +0.049 HD
ATOM     58  HD2 HYP A   6     143.727 165.083 191.119  0.00  0.00    +0.049 HD
ATOM     59  HG  HYP A   6     142.236 163.545 189.944  0.00  0.00    +0.061 HD
ATOM     60  HB1 HYP A   6     144.395 162.502 190.353  0.00  0.00    +0.031 HD
ATOM     61  HB2 HYP A   6     144.158 162.162 188.623  0.00  0.00    +0.031 HD
ATOM     62  HA  HYP A   6     146.367 163.547 189.648  0.00  0.00    +0.060 HD
ATOM     63  H   ALA A   7     144.657 165.425 187.225  0.00  0.00    +0.149 HD
ATOM     64  H   UNK A   5     147.487 168.082 191.424  0.00  0.00    +0.150 HD
ATOM     65  HA  THR A   4     148.242 167.597 193.841  0.00  0.00    +0.062 HD
ATOM     66  H   THR A   4     149.561 165.362 192.471  0.00  0.00    +0.150 HD
ATOM     67  HA  ALA A   3     151.633 166.253 191.510  0.00  0.00    +0.059 HD
ATOM     68  H   ALA A   3     149.523 165.973 189.423  0.00  0.00    +0.149 HD
ATOM     69  H   UNK A   2     150.094 163.306 188.490  0.00  0.00    +0.060 HD
ATOM     70  H   UNK A   2     148.845 164.531 187.078  0.00  0.00    +0.150 HD
ENDROOT
BRANCH   1  71
ATOM     71  CB  ALA A   7     144.674 165.853 184.706  0.00  0.00    -0.038 C 
ATOM     72  HB1 ALA A   7     145.119 166.847 184.590  0.00  0.00    +0.025 HD
ATOM     73  HB2 ALA A   7     144.388 165.482 183.718  0.00  0.00    +0.025 HD
ATOM     74  HB3 ALA A   7     143.758 165.960 185.297  0.00  0.00    +0.025 HD
ENDBRANCH   1  71
BRANCH  36  75
ATOM     75  CB  ALA A   3     151.650 167.930 190.170  0.00  0.00    -0.038 C 
ATOM     76  HB1 ALA A   3     152.165 168.556 190.907  0.00  0.00    +0.025 HD
ATOM     77  HB2 ALA A   3     152.403 167.570 189.459  0.00  0.00    +0.025 HD
ATOM     78  HB3 ALA A   3     150.946 168.562 189.619  0.00  0.00    +0.025 HD
ENDBRANCH  36  75
BRANCH  40  79
ATOM     79  C   UNK A   2     151.808 163.544 187.188  0.00  0.00    +0.005 C 
ATOM     80  H   UNK A   2     152.471 162.979 187.860  0.00  0.00    +0.032 HD
ATOM     81  H   UNK A   2     152.429 164.350 186.778  0.00  0.00    +0.032 HD
BRANCH  79  82
ATOM     82  C   UNK A   2     151.400 162.580 186.053  0.00  0.00    +0.088 C 
BRANCH  82  83
ATOM     83  C   UNK A   2     152.345 161.371 186.073  0.00  0.00    -0.034 C 
ATOM     84  H   UNK A   2     152.026 160.633 186.818  0.00  0.00    +0.026 HD
ATOM     85  H   UNK A   2     152.335 160.852 185.108  0.00  0.00    +0.026 HD
ATOM     86  H   UNK A   2     153.375 161.669 186.296  0.00  0.00    +0.026 HD
ENDBRANCH  82  83
BRANCH  82  87
ATOM     87  C   UNK A   2     151.435 163.211 184.645  0.00  0.00    +0.073 C 
ATOM     88  H   UNK A   2     152.199 163.991 184.569  0.00  0.00    +0.059 HD
ATOM     89  H   UNK A   2     151.637 162.450 183.882  0.00  0.00    +0.059 HD
BRANCH  87  90
ATOM     90  O   UNK A   2     150.155 163.758 184.331  0.00  0.00    -0.392 OA
ATOM     91  H   UNK A   2     149.772 164.054 185.184  0.00  0.00    +0.210 HD
ENDBRANCH  87  90
ENDBRANCH  82  87
BRANCH  82  92
ATOM     92  O   UNK A   2     150.075 162.087 186.305  0.00  0.00    -0.387 OA
ATOM     93  H   UNK A   2     149.504 162.887 186.332  0.00  0.00    +0.210 HD
ENDBRANCH  82  92
ENDBRANCH  79  82
ENDBRANCH  40  79
BRANCH  23  94
ATOM     94  OD  HYP A   6     142.677 164.236 188.060  0.00  0.00    -0.390 OA
ATOM     95  HD  HYP A   6     141.985 164.921 188.125  0.00  0.00    +0.210 HD
ENDBRANCH  23  94
BRANCH  32  96
ATOM     96  CB  THR A   4     148.073 165.552 194.579  0.00  0.00    +0.079 C 
ATOM     97  HB  THR A   4     147.248 164.841 194.439  0.00  0.00    +0.061 HD
BRANCH  96  98
ATOM     98  CG2 THR A   4     147.955 166.200 195.954  0.00  0.00    -0.037 C 
ATOM     99 HG21 THR A   4     148.582 165.666 196.677  0.00  0.00    +0.026 HD
ATOM    100 HG22 THR A   4     146.925 166.196 196.321  0.00  0.00    +0.026 HD
ATOM    101 HG23 THR A   4     148.315 167.234 195.933  0.00  0.00    +0.026 HD
ENDBRANCH  96  98
BRANCH  96 102
ATOM    102  OG1 THR A   4     149.279 164.770 194.557  0.00  0.00    -0.390 OA
ATOM    103  HG1 THR A   4     149.095 163.948 194.067  0.00  0.00    +0.210 HD
ENDBRANCH  96 102
ENDBRANCH  32  96
TORSDOF 12
ENDMDL
MODEL 6
REMARK VINA RESULT:      -5.4      5.601     11.159
REMARK  Name = Phalloidin_conf1
REMARK  12 active torsions:
REMARK  status: ('A' for Active; 'I' for Inactive)
REMARK    1  A    between atoms: CB_1  and  CA_2
REMARK    2  A    between atoms: CG_24  and  OD_30
REMARK    3  A    between atoms: CA_34  and  CB_53
REMARK    4  A    between atoms: CA_38  and  CB_52
REMARK    5  A    between atoms: C_42  and  C_46
REMARK    6  A    between atoms: C_46  and  C_47
REMARK    7  A    between atoms: C_47  and  C_48
REMARK    8  A    between atoms: C_47  and  C_49
REMARK    9  A    between atoms: C_47  and  O_51
REMARK   10  A    between atoms: C_49  and  O_50
REMARK   11  A    between atoms: CB_53  and  CG2_54
REMARK   12  A    between atoms: CB_53  and  OG1_55
REMARK                            x       y       z     vdW  Elec       q    Type
REMARK                         _______ _______ _______ _____ _____    ______ ____
ROOT
ATOM      1  CA  ALA A   7     156.472 163.045 188.426  0.00  0.00    +0.097 C 
ATOM      2  C   ALA A   7     155.979 164.488 188.659  0.00  0.00    +0.234 C 
ATOM      3  O   ALA A   7     156.537 165.252 189.448  0.00  0.00    -0.274 OA
ATOM      4  N   UNK A   1     154.954 164.894 187.836  0.00  0.00    -0.302 N 
ATOM      5  C   UNK A   1     154.499 166.282 187.755  0.00  0.00    +0.103 C 
ATOM      6  C   UNK A   1     154.200 166.709 186.306  0.00  0.00    +0.002 C 
ATOM      7  C   UNK A   1     155.142 166.163 185.265  0.00  0.00    -0.006 A 
ATOM      8  C   UNK A   5     154.794 165.438 184.142  0.00  0.00    +0.078 A 
ATOM      9  N   UNK A   5     155.923 165.175 183.420  0.00  0.00    -0.349 N 
ATOM     10  C   UNK A   5     157.030 165.644 184.082  0.00  0.00    +0.048 A 
ATOM     11  C   UNK A   5     158.385 165.561 183.740  0.00  0.00    -0.038 A 
ATOM     12  C   UNK A   5     159.310 166.151 184.607  0.00  0.00    -0.060 A 
ATOM     13  C   UNK A   5     158.890 166.807 185.760  0.00  0.00    -0.061 A 
ATOM     14  C   UNK A   5     157.529 166.891 186.080  0.00  0.00    -0.052 A 
ATOM     15  C   UNK A   5     156.573 166.291 185.233  0.00  0.00    +0.004 A 
ATOM     16  S   UNK A   5     153.255 164.938 183.525  0.00  0.00    -0.105 S 
ATOM     17  C   UNK A   5     153.419 163.122 183.462  0.00  0.00    +0.027 C 
ATOM     18  C   UNK A   5     152.424 162.342 184.328  0.00  0.00    +0.109 C 
ATOM     19  C   UNK A   5     152.823 162.357 185.822  0.00  0.00    +0.237 C 
ATOM     20  O   UNK A   5     152.673 163.358 186.533  0.00  0.00    -0.274 OA
ATOM     21  N   HYP A   6     153.307 161.183 186.362  0.00  0.00    -0.286 N 
ATOM     22  CD  HYP A   6     153.617 159.944 185.657  0.00  0.00    +0.042 C 
ATOM     23  CG  HYP A   6     154.294 159.075 186.714  0.00  0.00    +0.073 C 
ATOM     24  CB  HYP A   6     153.564 159.470 187.995  0.00  0.00    +0.002 C 
ATOM     25  CA  HYP A   6     153.302 160.971 187.815  0.00  0.00    +0.105 C 
ATOM     26  C   HYP A   6     154.342 161.795 188.584  0.00  0.00    +0.234 C 
ATOM     27  O   HYP A   6     154.249 161.991 189.792  0.00  0.00    -0.274 OA
ATOM     28  N   ALA A   7     155.419 162.219 187.844  0.00  0.00    -0.303 N 
ATOM     29  N   UNK A   5     151.048 162.814 184.266  0.00  0.00    -0.302 N 
ATOM     30  C   THR A   4     150.012 161.999 184.675  0.00  0.00    +0.237 C 
ATOM     31  O   THR A   4     150.171 160.790 184.840  0.00  0.00    -0.274 OA
ATOM     32  CA  THR A   4     148.662 162.718 184.884  0.00  0.00    +0.125 C 
ATOM     33  N   THR A   4     148.831 163.761 185.907  0.00  0.00    -0.300 N 
ATOM     34  C   ALA A   3     149.340 165.007 185.627  0.00  0.00    +0.234 C 
ATOM     35  O   ALA A   3     149.736 165.294 184.500  0.00  0.00    -0.274 OA
ATOM     36  CA  ALA A   3     149.381 165.959 186.832  0.00  0.00    +0.097 C 
ATOM     37  N   ALA A   3     150.344 165.465 187.809  0.00  0.00    -0.303 N 
ATOM     38  C   UNK A   2     150.247 165.816 189.143  0.00  0.00    +0.234 C 
ATOM     39  O   UNK A   2     149.205 166.275 189.610  0.00  0.00    -0.274 OA
ATOM     40  C   UNK A   2     151.481 165.442 190.015  0.00  0.00    +0.102 C 
ATOM     41  N   UNK A   2     152.698 165.429 189.208  0.00  0.00    -0.302 N 
ATOM     42  C   UNK A   1     153.230 166.539 188.593  0.00  0.00    +0.234 C 
ATOM     43  O   UNK A   1     152.706 167.651 188.649  0.00  0.00    -0.274 OA
ATOM     44  HA  ALA A   7     156.742 162.624 189.402  0.00  0.00    +0.059 HD
ATOM     45  H   UNK A   1     154.454 164.198 187.287  0.00  0.00    +0.150 HD
ATOM     46  H   UNK A   1     155.278 166.927 188.175  0.00  0.00    +0.060 HD
ATOM     47  H   UNK A   1     153.173 166.412 186.053  0.00  0.00    +0.034 HD
ATOM     48  H   UNK A   1     154.209 167.807 186.242  0.00  0.00    +0.034 HD
ATOM     49  H   UNK A   5     155.938 164.719 182.520  0.00  0.00    +0.166 HD
ATOM     50  H   UNK A   5     158.715 165.062 182.837  0.00  0.00    +0.064 HD
ATOM     51  H   UNK A   5     160.371 166.103 184.372  0.00  0.00    +0.062 HD
ATOM     52  H   UNK A   5     159.623 167.263 186.421  0.00  0.00    +0.062 HD
ATOM     53  H   UNK A   5     157.227 167.411 186.984  0.00  0.00    +0.062 HD
ATOM     54  H   UNK A   5     153.248 162.853 182.413  0.00  0.00    +0.040 HD
ATOM     55  H   UNK A   5     154.443 162.815 183.704  0.00  0.00    +0.040 HD
ATOM     56  H   UNK A   5     152.418 161.313 183.960  0.00  0.00    +0.060 HD
ATOM     57  HD1 HYP A   6     154.252 160.160 184.793  0.00  0.00    +0.049 HD
ATOM     58  HD2 HYP A   6     152.672 159.500 185.329  0.00  0.00    +0.049 HD
ATOM     59  HG  HYP A   6     154.222 158.007 186.484  0.00  0.00    +0.061 HD
ATOM     60  HB1 HYP A   6     152.605 158.938 188.045  0.00  0.00    +0.031 HD
ATOM     61  HB2 HYP A   6     154.137 159.241 188.898  0.00  0.00    +0.031 HD
ATOM     62  HA  HYP A   6     152.317 161.255 188.208  0.00  0.00    +0.060 HD
ATOM     63  H   ALA A   7     155.512 161.875 186.892  0.00  0.00    +0.149 HD
ATOM     64  H   UNK A   5     150.875 163.819 184.167  0.00  0.00    +0.150 HD
ATOM     65  HA  THR A   4     148.379 163.212 183.946  0.00  0.00    +0.062 HD
ATOM     66  H   THR A   4     148.530 163.557 186.857  0.00  0.00    +0.150 HD
ATOM     67  HA  ALA A   3     148.383 165.966 187.286  0.00  0.00    +0.059 HD
ATOM     68  H   ALA A   3     151.200 165.015 187.493  0.00  0.00    +0.149 HD
ATOM     69  H   UNK A   2     151.314 164.398 190.307  0.00  0.00    +0.060 HD
ATOM     70  H   UNK A   2     153.325 164.637 189.332  0.00  0.00    +0.150 HD
ENDROOT
BRANCH   1  71
ATOM     71  CB  ALA A   7     157.682 163.076 187.502  0.00  0.00    -0.038 C 
ATOM     72  HB1 ALA A   7     157.455 163.604 186.570  0.00  0.00    +0.025 HD
ATOM     73  HB2 ALA A   7     158.528 163.574 187.986  0.00  0.00    +0.025 HD
ATOM     74  HB3 ALA A   7     158.000 162.060 187.246  0.00  0.00    +0.025 HD
ENDBRANCH   1  71
BRANCH  36  75
ATOM     75  CB  ALA A   3     149.738 167.376 186.399  0.00  0.00    -0.038 C 
ATOM     76  HB1 ALA A   3     150.565 167.773 186.997  0.00  0.00    +0.025 HD
ATOM     77  HB2 ALA A   3     150.046 167.406 185.348  0.00  0.00    +0.025 HD
ATOM     78  HB3 ALA A   3     148.882 168.049 186.514  0.00  0.00    +0.025 HD
ENDBRANCH  36  75
BRANCH  40  79
ATOM     79  C   UNK A   2     151.549 166.322 191.273  0.00  0.00    +0.005 C 
ATOM     80  H   UNK A   2     150.584 166.210 191.789  0.00  0.00    +0.032 HD
ATOM     81  H   UNK A   2     151.608 167.382 190.996  0.00  0.00    +0.032 HD
BRANCH  79  82
ATOM     82  C   UNK A   2     152.647 165.998 192.309  0.00  0.00    +0.088 C 
BRANCH  82  83
ATOM     83  C   UNK A   2     151.982 165.778 193.675  0.00  0.00    -0.034 C 
ATOM     84  H   UNK A   2     151.579 166.716 194.074  0.00  0.00    +0.026 HD
ATOM     85  H   UNK A   2     151.131 165.094 193.589  0.00  0.00    +0.026 HD
ATOM     86  H   UNK A   2     152.688 165.364 194.404  0.00  0.00    +0.026 HD
ENDBRANCH  82  83
BRANCH  82  87
ATOM     87  C   UNK A   2     153.722 167.095 192.455  0.00  0.00    +0.073 C 
ATOM     88  H   UNK A   2     154.634 166.844 191.903  0.00  0.00    +0.059 HD
ATOM     89  H   UNK A   2     153.348 168.058 192.089  0.00  0.00    +0.059 HD
BRANCH  87  90
ATOM     90  O   UNK A   2     154.031 167.285 193.834  0.00  0.00    -0.392 OA
ATOM     91  H   UNK A   2     153.175 167.241 194.311  0.00  0.00    +0.210 HD
ENDBRANCH  87  90
ENDBRANCH  82  87
BRANCH  82  92
ATOM     92  O   UNK A   2     153.290 164.766 191.947  0.00  0.00    -0.387 OA
ATOM     93  H   UNK A   2     152.776 164.064 192.406  0.00  0.00    +0.210 HD
ENDBRANCH  82  92
ENDBRANCH  79  82
ENDBRANCH  40  79
BRANCH  23  94
ATOM     94  OD  HYP A   6     155.675 159.426 186.797  0.00  0.00    -0.390 OA
ATOM     95  HD  HYP A   6     156.193 158.612 186.655  0.00  0.00    +0.210 HD
ENDBRANCH  23  94
BRANCH  32  96
ATOM     96  CB  THR A   4     147.559 161.723 185.312  0.00  0.00    +0.079 C 
ATOM     97  HB  THR A   4     147.516 160.879 184.611  0.00  0.00    +0.061 HD
BRANCH  96  98
ATOM     98  CG2 THR A   4     146.184 162.376 185.403  0.00  0.00    -0.037 C 
ATOM     99 HG21 THR A   4     145.491 161.891 184.708  0.00  0.00    +0.026 HD
ATOM    100 HG22 THR A   4     146.222 163.443 185.166  0.00  0.00    +0.026 HD
ATOM    101 HG23 THR A   4     145.758 162.255 186.404  0.00  0.00    +0.026 HD
ENDBRANCH  96  98
BRANCH  96 102
ATOM    102  OG1 THR A   4     147.870 161.157 186.596  0.00  0.00    -0.390 OA
ATOM    103  HG1 THR A   4     148.357 161.825 187.109  0.00  0.00    +0.210 HD
ENDBRANCH  96 102
ENDBRANCH  32  96
TORSDOF 12
ENDMDL
MODEL 7
REMARK VINA RESULT:      -5.4      5.241      9.431
REMARK  Name = Phalloidin_conf1
REMARK  12 active torsions:
REMARK  status: ('A' for Active; 'I' for Inactive)
REMARK    1  A    between atoms: CB_1  and  CA_2
REMARK    2  A    between atoms: CG_24  and  OD_30
REMARK    3  A    between atoms: CA_34  and  CB_53
REMARK    4  A    between atoms: CA_38  and  CB_52
REMARK    5  A    between atoms: C_42  and  C_46
REMARK    6  A    between atoms: C_46  and  C_47
REMARK    7  A    between atoms: C_47  and  C_48
REMARK    8  A    between atoms: C_47  and  C_49
REMARK    9  A    between atoms: C_47  and  O_51
REMARK   10  A    between atoms: C_49  and  O_50
REMARK   11  A    between atoms: CB_53  and  CG2_54
REMARK   12  A    between atoms: CB_53  and  OG1_55
REMARK                            x       y       z     vdW  Elec       q    Type
REMARK                         _______ _______ _______ _____ _____    ______ ____
ROOT
ATOM      1  CA  ALA A   7     141.148 172.813 192.581  0.00  0.00    +0.097 C 
ATOM      2  C   ALA A   7     141.525 171.730 191.549  0.00  0.00    +0.234 C 
ATOM      3  O   ALA A   7     141.771 170.569 191.878  0.00  0.00    -0.274 OA
ATOM      4  N   UNK A   1     141.445 172.125 190.234  0.00  0.00    -0.302 N 
ATOM      5  C   UNK A   1     141.551 171.191 189.113  0.00  0.00    +0.103 C 
ATOM      6  C   UNK A   1     140.537 171.507 187.998  0.00  0.00    +0.002 C 
ATOM      7  C   UNK A   1     139.182 171.967 188.470  0.00  0.00    -0.006 A 
ATOM      8  C   UNK A   5     138.540 173.135 188.110  0.00  0.00    +0.078 A 
ATOM      9  N   UNK A   5     137.310 173.163 188.702  0.00  0.00    -0.349 N 
ATOM     10  C   UNK A   5     137.150 172.069 189.515  0.00  0.00    +0.048 A 
ATOM     11  C   UNK A   5     136.078 171.710 190.340  0.00  0.00    -0.038 A 
ATOM     12  C   UNK A   5     136.181 170.514 191.055  0.00  0.00    -0.060 A 
ATOM     13  C   UNK A   5     137.308 169.706 190.936  0.00  0.00    -0.061 A 
ATOM     14  C   UNK A   5     138.366 170.074 190.096  0.00  0.00    -0.052 A 
ATOM     15  C   UNK A   5     138.298 171.284 189.374  0.00  0.00    +0.004 A 
ATOM     16  S   UNK A   5     138.995 174.415 187.035  0.00  0.00    -0.105 S 
ATOM     17  C   UNK A   5     138.976 175.879 188.126  0.00  0.00    +0.027 C 
ATOM     18  C   UNK A   5     140.317 176.607 188.270  0.00  0.00    +0.109 C 
ATOM     19  C   UNK A   5     141.276 175.867 189.230  0.00  0.00    +0.237 C 
ATOM     20  O   UNK A   5     141.864 174.829 188.902  0.00  0.00    -0.274 OA
ATOM     21  N   HYP A   6     141.506 176.438 190.465  0.00  0.00    -0.286 N 
ATOM     22  CD  HYP A   6     140.845 177.605 191.039  0.00  0.00    +0.042 C 
ATOM     23  CG  HYP A   6     141.352 177.649 192.478  0.00  0.00    +0.073 C 
ATOM     24  CB  HYP A   6     142.783 177.137 192.349  0.00  0.00    +0.002 C 
ATOM     25  CA  HYP A   6     142.688 176.067 191.253  0.00  0.00    +0.105 C 
ATOM     26  C   HYP A   6     142.627 174.665 191.873  0.00  0.00    +0.234 C 
ATOM     27  O   HYP A   6     143.638 174.084 192.260  0.00  0.00    -0.274 OA
ATOM     28  N   ALA A   7     141.365 174.151 192.040  0.00  0.00    -0.303 N 
ATOM     29  N   UNK A   5     141.051 176.805 187.028  0.00  0.00    -0.302 N 
ATOM     30  C   THR A   4     142.052 177.751 186.952  0.00  0.00    +0.237 C 
ATOM     31  O   THR A   4     142.175 178.627 187.808  0.00  0.00    -0.274 OA
ATOM     32  CA  THR A   4     142.970 177.630 185.717  0.00  0.00    +0.125 C 
ATOM     33  N   THR A   4     143.615 176.309 185.730  0.00  0.00    -0.300 N 
ATOM     34  C   ALA A   3     143.000 175.172 185.263  0.00  0.00    +0.234 C 
ATOM     35  O   ALA A   3     141.841 175.197 184.856  0.00  0.00    -0.274 OA
ATOM     36  CA  ALA A   3     143.873 173.910 185.323  0.00  0.00    +0.097 C 
ATOM     37  N   ALA A   3     144.120 173.554 186.716  0.00  0.00    -0.303 N 
ATOM     38  C   UNK A   2     145.222 172.799 187.073  0.00  0.00    +0.234 C 
ATOM     39  O   UNK A   2     146.182 172.671 186.314  0.00  0.00    -0.274 OA
ATOM     40  C   UNK A   2     145.214 172.273 188.537  0.00  0.00    +0.102 C 
ATOM     41  N   UNK A   2     143.846 172.090 189.013  0.00  0.00    -0.302 N 
ATOM     42  C   UNK A   1     142.958 171.182 188.481  0.00  0.00    +0.234 C 
ATOM     43  O   UNK A   1     143.235 170.454 187.529  0.00  0.00    -0.274 OA
ATOM     44  HA  ALA A   7     141.800 172.682 193.453  0.00  0.00    +0.059 HD
ATOM     45  H   UNK A   1     141.351 173.115 190.018  0.00  0.00    +0.150 HD
ATOM     46  H   UNK A   1     141.379 170.177 189.490  0.00  0.00    +0.060 HD
ATOM     47  H   UNK A   1     140.965 172.270 187.335  0.00  0.00    +0.034 HD
ATOM     48  H   UNK A   1     140.403 170.617 187.367  0.00  0.00    +0.034 HD
ATOM     49  H   UNK A   5     136.613 173.875 188.548  0.00  0.00    +0.166 HD
ATOM     50  H   UNK A   5     135.192 172.330 190.426  0.00  0.00    +0.064 HD
ATOM     51  H   UNK A   5     135.366 170.207 191.707  0.00  0.00    +0.062 HD
ATOM     52  H   UNK A   5     137.369 168.776 191.497  0.00  0.00    +0.062 HD
ATOM     53  H   UNK A   5     139.233 169.425 190.018  0.00  0.00    +0.062 HD
ATOM     54  H   UNK A   5     138.257 176.569 187.670  0.00  0.00    +0.040 HD
ATOM     55  H   UNK A   5     138.585 175.621 189.116  0.00  0.00    +0.040 HD
ATOM     56  H   UNK A   5     140.099 177.603 188.665  0.00  0.00    +0.060 HD
ATOM     57  HD1 HYP A   6     139.759 177.492 190.959  0.00  0.00    +0.049 HD
ATOM     58  HD2 HYP A   6     141.174 178.485 190.479  0.00  0.00    +0.049 HD
ATOM     59  HG  HYP A   6     141.286 178.651 192.913  0.00  0.00    +0.061 HD
ATOM     60  HB1 HYP A   6     143.431 177.953 192.002  0.00  0.00    +0.031 HD
ATOM     61  HB2 HYP A   6     143.183 176.750 193.290  0.00  0.00    +0.031 HD
ATOM     62  HA  HYP A   6     143.567 176.087 190.596  0.00  0.00    +0.060 HD
ATOM     63  H   ALA A   7     140.571 174.758 191.854  0.00  0.00    +0.149 HD
ATOM     64  H   UNK A   5     141.003 176.079 186.307  0.00  0.00    +0.150 HD
ATOM     65  HA  THR A   4     142.350 177.691 184.813  0.00  0.00    +0.062 HD
ATOM     66  H   THR A   4     144.569 176.242 186.075  0.00  0.00    +0.150 HD
ATOM     67  HA  ALA A   3     144.829 174.142 184.838  0.00  0.00    +0.059 HD
ATOM     68  H   ALA A   3     143.390 173.696 187.411  0.00  0.00    +0.149 HD
ATOM     69  H   UNK A   2     145.622 173.098 189.135  0.00  0.00    +0.060 HD
ATOM     70  H   UNK A   2     143.630 172.442 189.943  0.00  0.00    +0.150 HD
ENDROOT
BRANCH   1  71
ATOM     71  CB  ALA A   7     139.687 172.639 192.973  0.00  0.00    -0.038 C 
ATOM     72  HB1 ALA A   7     139.144 172.048 192.227  0.00  0.00    +0.025 HD
ATOM     73  HB2 ALA A   7     139.601 172.138 193.942  0.00  0.00    +0.025 HD
ATOM     74  HB3 ALA A   7     139.190 173.611 193.059  0.00  0.00    +0.025 HD
ENDBRANCH   1  71
BRANCH  36  75
ATOM     75  CB  ALA A   3     143.214 172.751 184.584  0.00  0.00    -0.038 C 
ATOM     76  HB1 ALA A   3     143.459 172.775 183.517  0.00  0.00    +0.025 HD
ATOM     77  HB2 ALA A   3     143.551 171.785 184.979  0.00  0.00    +0.025 HD
ATOM     78  HB3 ALA A   3     142.125 172.790 184.684  0.00  0.00    +0.025 HD
ENDBRANCH  36  75
BRANCH  40  79
ATOM     79  C   UNK A   2     146.120 171.040 188.681  0.00  0.00    +0.005 C 
ATOM     80  H   UNK A   2     147.132 171.355 188.388  0.00  0.00    +0.032 HD
ATOM     81  H   UNK A   2     145.834 170.270 187.954  0.00  0.00    +0.032 HD
BRANCH  79  82
ATOM     82  C   UNK A   2     146.241 170.405 190.083  0.00  0.00    +0.088 C 
BRANCH  82  83
ATOM     83  C   UNK A   2     147.724 170.137 190.374  0.00  0.00    -0.034 C 
ATOM     84  H   UNK A   2     148.365 170.590 189.607  0.00  0.00    +0.026 HD
ATOM     85  H   UNK A   2     148.024 170.591 191.325  0.00  0.00    +0.026 HD
ATOM     86  H   UNK A   2     147.938 169.064 190.418  0.00  0.00    +0.026 HD
ENDBRANCH  82  83
BRANCH  82  87
ATOM     87  C   UNK A   2     145.459 169.085 190.249  0.00  0.00    +0.073 C 
ATOM     88  H   UNK A   2     145.261 168.607 189.284  0.00  0.00    +0.059 HD
ATOM     89  H   UNK A   2     146.014 168.381 190.879  0.00  0.00    +0.059 HD
BRANCH  87  90
ATOM     90  O   UNK A   2     144.229 169.338 190.924  0.00  0.00    -0.392 OA
ATOM     91  H   UNK A   2     143.966 168.487 191.334  0.00  0.00    +0.210 HD
ENDBRANCH  87  90
ENDBRANCH  82  87
BRANCH  82  92
ATOM     92  O   UNK A   2     145.779 171.343 191.067  0.00  0.00    -0.387 OA
ATOM     93  H   UNK A   2     146.237 172.186 190.853  0.00  0.00    +0.210 HD
ENDBRANCH  82  92
ENDBRANCH  79  82
ENDBRANCH  40  79
BRANCH  23  94
ATOM     94  OD  HYP A   6     140.573 176.759 193.278  0.00  0.00    -0.390 OA
ATOM     95  HD  HYP A   6     140.707 175.857 192.929  0.00  0.00    +0.210 HD
ENDBRANCH  23  94
BRANCH  32  96
ATOM     96  CB  THR A   4     144.038 178.747 185.703  0.00  0.00    +0.079 C 
ATOM     97  HB  THR A   4     143.560 179.732 185.794  0.00  0.00    +0.061 HD
BRANCH  96  98
ATOM     98  CG2 THR A   4     144.900 178.718 184.446  0.00  0.00    -0.037 C 
ATOM     99 HG21 THR A   4     145.829 179.273 184.613  0.00  0.00    +0.026 HD
ATOM    100 HG22 THR A   4     144.385 179.157 183.586  0.00  0.00    +0.026 HD
ATOM    101 HG23 THR A   4     145.191 177.693 184.193  0.00  0.00    +0.026 HD
ENDBRANCH  96  98
BRANCH  96 102
ATOM    102  OG1 THR A   4     144.906 178.621 186.841  0.00  0.00    -0.390 OA
ATOM    103  HG1 THR A   4     145.720 178.171 186.550  0.00  0.00    +0.210 HD
ENDBRANCH  96 102
ENDBRANCH  32  96
TORSDOF 12
ENDMDL
MODEL 8
REMARK VINA RESULT:      -5.3      3.392      7.537
REMARK  Name = Phalloidin_conf1
REMARK  12 active torsions:
REMARK  status: ('A' for Active; 'I' for Inactive)
REMARK    1  A    between atoms: CB_1  and  CA_2
REMARK    2  A    between atoms: CG_24  and  OD_30
REMARK    3  A    between atoms: CA_34  and  CB_53
REMARK    4  A    between atoms: CA_38  and  CB_52
REMARK    5  A    between atoms: C_42  and  C_46
REMARK    6  A    between atoms: C_46  and  C_47
REMARK    7  A    between atoms: C_47  and  C_48
REMARK    8  A    between atoms: C_47  and  C_49
REMARK    9  A    between atoms: C_47  and  O_51
REMARK   10  A    between atoms: C_49  and  O_50
REMARK   11  A    between atoms: CB_53  and  CG2_54
REMARK   12  A    between atoms: CB_53  and  OG1_55
REMARK                            x       y       z     vdW  Elec       q    Type
REMARK                         _______ _______ _______ _____ _____    ______ ____
ROOT
ATOM      1  CA  ALA A   7     142.470 168.079 191.550  0.00  0.00    +0.097 C 
ATOM      2  C   ALA A   7     143.862 168.093 190.886  0.00  0.00    +0.234 C 
ATOM      3  O   ALA A   7     144.874 167.715 191.478  0.00  0.00    -0.274 OA
ATOM      4  N   UNK A   1     143.870 168.439 189.555  0.00  0.00    -0.302 N 
ATOM      5  C   UNK A   1     145.051 168.301 188.702  0.00  0.00    +0.103 C 
ATOM      6  C   UNK A   1     144.695 167.761 187.304  0.00  0.00    +0.002 C 
ATOM      7  C   UNK A   1     143.617 166.710 187.274  0.00  0.00    -0.006 A 
ATOM      8  C   UNK A   5     142.450 166.752 186.537  0.00  0.00    +0.078 A 
ATOM      9  N   UNK A   5     141.762 165.589 186.734  0.00  0.00    -0.349 N 
ATOM     10  C   UNK A   5     142.413 164.802 187.652  0.00  0.00    +0.048 A 
ATOM     11  C   UNK A   5     142.056 163.557 188.184  0.00  0.00    -0.038 A 
ATOM     12  C   UNK A   5     142.929 162.971 189.104  0.00  0.00    -0.060 A 
ATOM     13  C   UNK A   5     144.116 163.601 189.464  0.00  0.00    -0.061 A 
ATOM     14  C   UNK A   5     144.463 164.841 188.912  0.00  0.00    -0.052 A 
ATOM     15  C   UNK A   5     143.594 165.466 187.993  0.00  0.00    +0.004 A 
ATOM     16  S   UNK A   5     141.831 167.926 185.424  0.00  0.00    -0.105 S 
ATOM     17  C   UNK A   5     140.234 168.389 186.177  0.00  0.00    +0.027 C 
ATOM     18  C   UNK A   5     140.094 169.864 186.566  0.00  0.00    +0.109 C 
ATOM     19  C   UNK A   5     140.842 170.188 187.881  0.00  0.00    +0.237 C 
ATOM     20  O   UNK A   5     142.074 170.282 187.930  0.00  0.00    -0.274 OA
ATOM     21  N   HYP A   6     140.077 170.431 189.003  0.00  0.00    -0.286 N 
ATOM     22  CD  HYP A   6     138.632 170.289 189.139  0.00  0.00    +0.042 C 
ATOM     23  CG  HYP A   6     138.377 170.495 190.630  0.00  0.00    +0.073 C 
ATOM     24  CB  HYP A   6     139.431 171.529 191.014  0.00  0.00    +0.002 C 
ATOM     25  CA  HYP A   6     140.643 171.150 190.152  0.00  0.00    +0.105 C 
ATOM     26  C   HYP A   6     141.657 170.343 190.973  0.00  0.00    +0.234 C 
ATOM     27  O   HYP A   6     142.452 170.886 191.734  0.00  0.00    -0.274 OA
ATOM     28  N   ALA A   7     141.551 168.978 190.860  0.00  0.00    -0.303 N 
ATOM     29  N   UNK A   5     140.577 170.814 185.574  0.00  0.00    -0.302 N 
ATOM     30  C   THR A   4     140.176 172.134 185.618  0.00  0.00    +0.237 C 
ATOM     31  O   THR A   4     139.215 172.491 186.299  0.00  0.00    -0.274 OA
ATOM     32  CA  THR A   4     141.008 173.097 184.744  0.00  0.00    +0.125 C 
ATOM     33  N   THR A   4     142.410 173.049 185.184  0.00  0.00    -0.300 N 
ATOM     34  C   ALA A   3     143.289 172.074 184.774  0.00  0.00    +0.234 C 
ATOM     35  O   ALA A   3     142.923 171.149 184.053  0.00  0.00    -0.274 OA
ATOM     36  CA  ALA A   3     144.717 172.244 185.313  0.00  0.00    +0.097 C 
ATOM     37  N   ALA A   3     144.719 172.048 186.758  0.00  0.00    -0.303 N 
ATOM     38  C   UNK A   2     145.712 172.596 187.549  0.00  0.00    +0.234 C 
ATOM     39  O   UNK A   2     146.428 173.508 187.135  0.00  0.00    -0.274 OA
ATOM     40  C   UNK A   2     145.740 172.088 189.019  0.00  0.00    +0.102 C 
ATOM     41  N   UNK A   2     145.215 170.728 189.105  0.00  0.00    -0.302 N 
ATOM     42  C   UNK A   1     145.804 169.634 188.515  0.00  0.00    +0.234 C 
ATOM     43  O   UNK A   1     146.825 169.709 187.833  0.00  0.00    -0.274 OA
ATOM     44  HA  ALA A   7     142.590 168.431 192.582  0.00  0.00    +0.059 HD
ATOM     45  H   UNK A   1     143.034 168.850 189.145  0.00  0.00    +0.150 HD
ATOM     46  H   UNK A   1     145.753 167.618 189.192  0.00  0.00    +0.060 HD
ATOM     47  H   UNK A   1     144.396 168.602 186.665  0.00  0.00    +0.034 HD
ATOM     48  H   UNK A   1     145.599 167.348 186.835  0.00  0.00    +0.034 HD
ATOM     49  H   UNK A   5     140.909 165.336 186.258  0.00  0.00    +0.166 HD
ATOM     50  H   UNK A   5     141.138 163.057 187.897  0.00  0.00    +0.064 HD
ATOM     51  H   UNK A   5     142.681 162.005 189.538  0.00  0.00    +0.062 HD
ATOM     52  H   UNK A   5     144.786 163.129 190.179  0.00  0.00    +0.062 HD
ATOM     53  H   UNK A   5     145.397 165.311 189.207  0.00  0.00    +0.062 HD
ATOM     54  H   UNK A   5     139.479 168.160 185.415  0.00  0.00    +0.040 HD
ATOM     55  H   UNK A   5     140.013 167.753 187.042  0.00  0.00    +0.040 HD
ATOM     56  H   UNK A   5     139.027 170.061 186.693  0.00  0.00    +0.060 HD
ATOM     57  HD1 HYP A   6     138.320 169.307 188.772  0.00  0.00    +0.049 HD
ATOM     58  HD2 HYP A   6     138.161 171.080 188.547  0.00  0.00    +0.049 HD
ATOM     59  HG  HYP A   6     137.353 170.821 190.838  0.00  0.00    +0.061 HD
ATOM     60  HB1 HYP A   6     139.082 172.529 190.727  0.00  0.00    +0.031 HD
ATOM     61  HB2 HYP A   6     139.653 171.532 192.085  0.00  0.00    +0.031 HD
ATOM     62  HA  HYP A   6     141.168 172.041 189.784  0.00  0.00    +0.060 HD
ATOM     63  H   ALA A   7     140.760 168.599 190.346  0.00  0.00    +0.149 HD
ATOM     64  H   UNK A   5     141.399 170.568 185.014  0.00  0.00    +0.150 HD
ATOM     65  HA  THR A   4     140.970 172.746 183.705  0.00  0.00    +0.062 HD
ATOM     66  H   THR A   4     142.748 173.787 185.795  0.00  0.00    +0.150 HD
ATOM     67  HA  ALA A   3     145.038 173.269 185.090  0.00  0.00    +0.059 HD
ATOM     68  H   ALA A   3     144.103 171.354 187.175  0.00  0.00    +0.149 HD
ATOM     69  H   UNK A   2     145.012 172.715 189.548  0.00  0.00    +0.060 HD
ATOM     70  H   UNK A   2     144.551 170.537 189.853  0.00  0.00    +0.150 HD
ENDROOT
BRANCH   1  71
ATOM     71  CB  ALA A   7     141.923 166.657 191.529  0.00  0.00    -0.038 C 
ATOM     72  HB1 ALA A   7     142.366 166.051 192.327  0.00  0.00    +0.025 HD
ATOM     73  HB2 ALA A   7     140.836 166.656 191.655  0.00  0.00    +0.025 HD
ATOM     74  HB3 ALA A   7     142.146 166.171 190.574  0.00  0.00    +0.025 HD
ENDBRANCH   1  71
BRANCH  36  75
ATOM     75  CB  ALA A   3     145.677 171.269 184.640  0.00  0.00    -0.038 C 
ATOM     76  HB1 ALA A   3     145.312 170.240 184.722  0.00  0.00    +0.025 HD
ATOM     77  HB2 ALA A   3     145.790 171.495 183.573  0.00  0.00    +0.025 HD
ATOM     78  HB3 ALA A   3     146.670 171.316 185.098  0.00  0.00    +0.025 HD
ENDBRANCH  36  75
BRANCH  40  79
ATOM     79  C   UNK A   2     147.132 172.285 189.640  0.00  0.00    +0.005 C 
ATOM     80  H   UNK A   2     147.433 173.320 189.421  0.00  0.00    +0.032 HD
ATOM     81  H   UNK A   2     147.870 171.654 189.129  0.00  0.00    +0.032 HD
BRANCH  79  82
ATOM     82  C   UNK A   2     147.263 172.098 191.167  0.00  0.00    +0.088 C 
BRANCH  82  83
ATOM     83  C   UNK A   2     148.043 173.289 191.741  0.00  0.00    -0.034 C 
ATOM     84  H   UNK A   2     148.431 173.930 190.940  0.00  0.00    +0.026 HD
ATOM     85  H   UNK A   2     147.392 173.925 192.350  0.00  0.00    +0.026 HD
ATOM     86  H   UNK A   2     148.883 172.958 192.361  0.00  0.00    +0.026 HD
ENDBRANCH  82  83
BRANCH  82  87
ATOM     87  C   UNK A   2     147.974 170.794 191.586  0.00  0.00    +0.073 C 
ATOM     88  H   UNK A   2     148.853 170.594 190.965  0.00  0.00    +0.059 HD
ATOM     89  H   UNK A   2     148.291 170.843 192.634  0.00  0.00    +0.059 HD
BRANCH  87  90
ATOM     90  O   UNK A   2     147.062 169.701 191.498  0.00  0.00    -0.392 OA
ATOM     91  H   UNK A   2     146.165 170.093 191.536  0.00  0.00    +0.210 HD
ENDBRANCH  87  90
ENDBRANCH  82  87
BRANCH  82  92
ATOM     92  O   UNK A   2     145.955 172.123 191.760  0.00  0.00    -0.387 OA
ATOM     93  H   UNK A   2     145.996 172.830 192.441  0.00  0.00    +0.210 HD
ENDBRANCH  82  92
ENDBRANCH  79  82
ENDBRANCH  40  79
BRANCH  23  94
ATOM     94  OD  HYP A   6     138.607 169.266 191.320  0.00  0.00    -0.390 OA
ATOM     95  HD  HYP A   6     139.314 169.425 191.974  0.00  0.00    +0.210 HD
ENDBRANCH  23  94
BRANCH  32  96
ATOM     96  CB  THR A   4     140.467 174.542 184.835  0.00  0.00    +0.079 C 
ATOM     97  HB  THR A   4     139.389 174.559 184.626  0.00  0.00    +0.061 HD
BRANCH  96  98
ATOM     98  CG2 THR A   4     141.182 175.495 183.884  0.00  0.00    -0.037 C 
ATOM     99 HG21 THR A   4     142.214 175.653 184.215  0.00  0.00    +0.026 HD
ATOM    100 HG22 THR A   4     140.684 176.467 183.829  0.00  0.00    +0.026 HD
ATOM    101 HG23 THR A   4     141.238 175.074 182.875  0.00  0.00    +0.026 HD
ENDBRANCH  96  98
BRANCH  96 102
ATOM    102  OG1 THR A   4     140.620 175.048 186.171  0.00  0.00    -0.390 OA
ATOM    103  HG1 THR A   4     140.000 175.791 186.284  0.00  0.00    +0.210 HD
ENDBRANCH  96 102
ENDBRANCH  32  96
TORSDOF 12
ENDMDL
MODEL 9
REMARK VINA RESULT:      -5.3      2.494      7.707
REMARK  Name = Phalloidin_conf1
REMARK  12 active torsions:
REMARK  status: ('A' for Active; 'I' for Inactive)
REMARK    1  A    between atoms: CB_1  and  CA_2
REMARK    2  A    between atoms: CG_24  and  OD_30
REMARK    3  A    between atoms: CA_34  and  CB_53
REMARK    4  A    between atoms: CA_38  and  CB_52
REMARK    5  A    between atoms: C_42  and  C_46
REMARK    6  A    between atoms: C_46  and  C_47
REMARK    7  A    between atoms: C_47  and  C_48
REMARK    8  A    between atoms: C_47  and  C_49
REMARK    9  A    between atoms: C_47  and  O_51
REMARK   10  A    between atoms: C_49  and  O_50
REMARK   11  A    between atoms: CB_53  and  CG2_54
REMARK   12  A    between atoms: CB_53  and  OG1_55
REMARK                            x       y       z     vdW  Elec       q    Type
REMARK                         _______ _______ _______ _____ _____    ______ ____
ROOT
ATOM      1  CA  ALA A   7     143.803 172.724 188.597  0.00  0.00    +0.097 C 
ATOM      2  C   ALA A   7     144.029 171.752 189.773  0.00  0.00    +0.234 C 
ATOM      3  O   ALA A   7     144.029 172.131 190.946  0.00  0.00    -0.274 OA
ATOM      4  N   UNK A   1     144.105 170.423 189.425  0.00  0.00    -0.302 N 
ATOM      5  C   UNK A   1     144.099 169.340 190.409  0.00  0.00    +0.103 C 
ATOM      6  C   UNK A   1     143.233 168.151 189.954  0.00  0.00    +0.002 C 
ATOM      7  C   UNK A   1     141.964 168.517 189.229  0.00  0.00    -0.006 A 
ATOM      8  C   UNK A   5     141.579 168.080 187.977  0.00  0.00    +0.078 A 
ATOM      9  N   UNK A   5     140.343 168.586 187.694  0.00  0.00    -0.349 N 
ATOM     10  C   UNK A   5     139.929 169.419 188.704  0.00  0.00    +0.048 A 
ATOM     11  C   UNK A   5     138.760 170.180 188.820  0.00  0.00    -0.038 A 
ATOM     12  C   UNK A   5     138.591 170.935 189.984  0.00  0.00    -0.060 A 
ATOM     13  C   UNK A   5     139.548 170.916 190.994  0.00  0.00    -0.061 A 
ATOM     14  C   UNK A   5     140.706 170.139 190.866  0.00  0.00    -0.052 A 
ATOM     15  C   UNK A   5     140.913 169.379 189.695  0.00  0.00    +0.004 A 
ATOM     16  S   UNK A   5     142.333 167.001 186.851  0.00  0.00    -0.105 S 
ATOM     17  C   UNK A   5     142.527 168.044 185.365  0.00  0.00    +0.027 C 
ATOM     18  C   UNK A   5     143.971 168.257 184.897  0.00  0.00    +0.109 C 
ATOM     19  C   UNK A   5     144.712 169.301 185.764  0.00  0.00    +0.237 C 
ATOM     20  O   UNK A   5     145.110 169.044 186.906  0.00  0.00    -0.274 OA
ATOM     21  N   HYP A   6     144.970 170.532 185.195  0.00  0.00    -0.286 N 
ATOM     22  CD  HYP A   6     144.510 171.025 183.902  0.00  0.00    +0.042 C 
ATOM     23  CG  HYP A   6     144.928 172.493 183.895  0.00  0.00    +0.073 C 
ATOM     24  CB  HYP A   6     146.240 172.475 184.671  0.00  0.00    +0.002 C 
ATOM     25  CA  HYP A   6     146.011 171.407 185.748  0.00  0.00    +0.105 C 
ATOM     26  C   HYP A   6     145.647 172.062 187.087  0.00  0.00    +0.234 C 
ATOM     27  O   HYP A   6     146.503 172.534 187.831  0.00  0.00    -0.274 OA
ATOM     28  N   ALA A   7     144.302 172.160 187.348  0.00  0.00    -0.303 N 
ATOM     29  N   UNK A   5     144.802 167.062 184.893  0.00  0.00    -0.302 N 
ATOM     30  C   THR A   4     145.968 167.026 184.155  0.00  0.00    +0.237 C 
ATOM     31  O   THR A   4     146.203 167.862 183.282  0.00  0.00    -0.274 OA
ATOM     32  CA  THR A   4     146.919 165.859 184.497  0.00  0.00    +0.125 C 
ATOM     33  N   THR A   4     147.299 165.955 185.914  0.00  0.00    -0.300 N 
ATOM     34  C   ALA A   3     146.509 165.481 186.934  0.00  0.00    +0.234 C 
ATOM     35  O   ALA A   3     145.402 164.996 186.709  0.00  0.00    -0.274 OA
ATOM     36  CA  ALA A   3     147.121 165.637 188.334  0.00  0.00    +0.097 C 
ATOM     37  N   ALA A   3     147.210 167.053 188.671  0.00  0.00    -0.303 N 
ATOM     38  C   UNK A   2     148.125 167.505 189.605  0.00  0.00    +0.234 C 
ATOM     39  O   UNK A   2     149.088 166.816 189.943  0.00  0.00    -0.274 OA
ATOM     40  C   UNK A   2     147.929 168.980 190.058  0.00  0.00    +0.102 C 
ATOM     41  N   UNK A   2     146.525 169.368 189.962  0.00  0.00    -0.302 N 
ATOM     42  C   UNK A   1     145.514 168.804 190.708  0.00  0.00    +0.234 C 
ATOM     43  O   UNK A   1     145.705 167.895 191.514  0.00  0.00    -0.274 OA
ATOM     44  HA  ALA A   7     144.364 173.642 188.812  0.00  0.00    +0.059 HD
ATOM     45  H   UNK A   1     144.214 170.173 188.445  0.00  0.00    +0.150 HD
ATOM     46  H   UNK A   1     143.715 169.734 191.355  0.00  0.00    +0.060 HD
ATOM     47  H   UNK A   1     143.837 167.496 189.313  0.00  0.00    +0.034 HD
ATOM     48  H   UNK A   1     142.970 167.538 190.829  0.00  0.00    +0.034 HD
ATOM     49  H   UNK A   5     139.805 168.365 186.871  0.00  0.00    +0.166 HD
ATOM     50  H   UNK A   5     138.005 170.188 188.042  0.00  0.00    +0.064 HD
ATOM     51  H   UNK A   5     137.694 171.540 190.105  0.00  0.00    +0.062 HD
ATOM     52  H   UNK A   5     139.398 171.507 191.894  0.00  0.00    +0.062 HD
ATOM     53  H   UNK A   5     141.437 170.139 191.669  0.00  0.00    +0.062 HD
ATOM     54  H   UNK A   5     141.981 167.521 184.572  0.00  0.00    +0.040 HD
ATOM     55  H   UNK A   5     142.034 169.013 185.504  0.00  0.00    +0.040 HD
ATOM     56  H   UNK A   5     143.922 168.607 183.863  0.00  0.00    +0.060 HD
ATOM     57  HD1 HYP A   6     143.429 170.875 183.812  0.00  0.00    +0.049 HD
ATOM     58  HD2 HYP A   6     145.034 170.463 183.123  0.00  0.00    +0.049 HD
ATOM     59  HG  HYP A   6     145.027 172.893 182.880  0.00  0.00    +0.061 HD
ATOM     60  HB1 HYP A   6     147.051 172.150 184.006  0.00  0.00    +0.031 HD
ATOM     61  HB2 HYP A   6     146.502 173.453 185.087  0.00  0.00    +0.031 HD
ATOM     62  HA  HYP A   6     146.916 170.811 185.921  0.00  0.00    +0.060 HD
ATOM     63  H   ALA A   7     143.651 171.903 186.611  0.00  0.00    +0.149 HD
ATOM     64  H   UNK A   5     144.661 166.361 185.626  0.00  0.00    +0.150 HD
ATOM     65  HA  THR A   4     146.378 164.915 184.359  0.00  0.00    +0.062 HD
ATOM     66  H   THR A   4     148.201 166.365 186.145  0.00  0.00    +0.150 HD
ATOM     67  HA  ALA A   3     148.131 165.211 188.306  0.00  0.00    +0.059 HD
ATOM     68  H   ALA A   3     146.481 167.693 188.367  0.00  0.00    +0.149 HD
ATOM     69  H   UNK A   2     148.449 169.580 189.301  0.00  0.00    +0.060 HD
ATOM     70  H   UNK A   2     146.324 170.271 189.536  0.00  0.00    +0.150 HD
ENDROOT
BRANCH   1  71
ATOM     71  CB  ALA A   7     142.314 173.022 188.477  0.00  0.00    -0.038 C 
ATOM     72  HB1 ALA A   7     141.905 172.627 187.541  0.00  0.00    +0.025 HD
ATOM     73  HB2 ALA A   7     141.761 172.580 189.311  0.00  0.00    +0.025 HD
ATOM     74  HB3 ALA A   7     142.132 174.102 188.496  0.00  0.00    +0.025 HD
ENDBRANCH   1  71
BRANCH  36  75
ATOM     75  CB  ALA A   3     146.299 164.890 189.378  0.00  0.00    -0.038 C 
ATOM     76  HB1 ALA A   3     145.227 165.014 189.196  0.00  0.00    +0.025 HD
ATOM     77  HB2 ALA A   3     146.515 163.815 189.360  0.00  0.00    +0.025 HD
ATOM     78  HB3 ALA A   3     146.518 165.257 190.386  0.00  0.00    +0.025 HD
ENDBRANCH  36  75
BRANCH  40  79
ATOM     79  C   UNK A   2     148.574 169.221 191.433  0.00  0.00    +0.005 C 
ATOM     80  H   UNK A   2     149.453 168.563 191.489  0.00  0.00    +0.032 HD
ATOM     81  H   UNK A   2     147.905 168.879 192.233  0.00  0.00    +0.032 HD
BRANCH  79  82
ATOM     82  C   UNK A   2     149.066 170.650 191.748  0.00  0.00    +0.088 C 
BRANCH  82  83
ATOM     83  C   UNK A   2     150.454 170.557 192.398  0.00  0.00    -0.034 C 
ATOM     84  H   UNK A   2     150.951 169.616 192.136  0.00  0.00    +0.026 HD
ATOM     85  H   UNK A   2     151.109 171.357 192.034  0.00  0.00    +0.026 HD
ATOM     86  H   UNK A   2     150.393 170.628 193.489  0.00  0.00    +0.026 HD
ENDBRANCH  82  83
BRANCH  82  87
ATOM     87  C   UNK A   2     148.135 171.448 192.684  0.00  0.00    +0.073 C 
ATOM     88  H   UNK A   2     147.876 170.876 193.581  0.00  0.00    +0.059 HD
ATOM     89  H   UNK A   2     148.606 172.388 192.993  0.00  0.00    +0.059 HD
BRANCH  87  90
ATOM     90  O   UNK A   2     146.947 171.810 191.984  0.00  0.00    -0.392 OA
ATOM     91  H   UNK A   2     147.164 172.628 191.487  0.00  0.00    +0.210 HD
ENDBRANCH  87  90
ENDBRANCH  82  87
BRANCH  82  92
ATOM     92  O   UNK A   2     149.221 171.377 190.520  0.00  0.00    -0.387 OA
ATOM     93  H   UNK A   2     148.356 171.290 190.059  0.00  0.00    +0.210 HD
ENDBRANCH  82  92
ENDBRANCH  79  82
ENDBRANCH  40  79
BRANCH  23  94
ATOM     94  OD  HYP A   6     143.947 173.264 184.588  0.00  0.00    -0.390 OA
ATOM     95  HD  HYP A   6     144.418 173.958 185.087  0.00  0.00    +0.210 HD
ENDBRANCH  23  94
BRANCH  32  96
ATOM     96  CB  THR A   4     148.179 165.885 183.602  0.00  0.00    +0.079 C 
ATOM     97  HB  THR A   4     148.320 166.885 183.172  0.00  0.00    +0.061 HD
BRANCH  96  98
ATOM     98  CG2 THR A   4     148.120 164.854 182.480  0.00  0.00    -0.037 C 
ATOM     99 HG21 THR A   4     147.574 165.262 181.622  0.00  0.00    +0.026 HD
ATOM    100 HG22 THR A   4     147.626 163.931 182.798  0.00  0.00    +0.026 HD
ATOM    101 HG23 THR A   4     149.125 164.607 182.121  0.00  0.00    +0.026 HD
ENDBRANCH  96  98
BRANCH  96 102
ATOM    102  OG1 THR A   4     149.354 165.622 184.387  0.00  0.00    -0.390 OA
ATOM    103  HG1 THR A   4     150.079 165.398 183.777  0.00  0.00    +0.210 HD
ENDBRANCH  96 102
ENDBRANCH  32  96
TORSDOF 12
ENDMDL
MODEL 10
REMARK VINA RESULT:      -5.2      6.343     10.084
REMARK  Name = Phalloidin_conf1
REMARK  12 active torsions:
REMARK  status: ('A' for Active; 'I' for Inactive)
REMARK    1  A    between atoms: CB_1  and  CA_2
REMARK    2  A    between atoms: CG_24  and  OD_30
REMARK    3  A    between atoms: CA_34  and  CB_53
REMARK    4  A    between atoms: CA_38  and  CB_52
REMARK    5  A    between atoms: C_42  and  C_46
REMARK    6  A    between atoms: C_46  and  C_47
REMARK    7  A    between atoms: C_47  and  C_48
REMARK    8  A    between atoms: C_47  and  C_49
REMARK    9  A    between atoms: C_47  and  O_51
REMARK   10  A    between atoms: C_49  and  O_50
REMARK   11  A    between atoms: CB_53  and  CG2_54
REMARK   12  A    between atoms: CB_53  and  OG1_55
REMARK                            x       y       z     vdW  Elec       q    Type
REMARK                         _______ _______ _______ _____ _____    ______ ____
ROOT
ATOM      1  CA  ALA A   7     150.591 161.886 184.625  0.00  0.00    +0.097 C 
ATOM      2  C   ALA A   7     150.574 162.061 186.158  0.00  0.00    +0.234 C 
ATOM      3  O   ALA A   7     149.576 161.812 186.835  0.00  0.00    -0.274 OA
ATOM      4  N   UNK A   1     151.784 162.396 186.720  0.00  0.00    -0.302 N 
ATOM      5  C   UNK A   1     152.021 162.394 188.164  0.00  0.00    +0.103 C 
ATOM      6  C   UNK A   1     153.397 161.806 188.524  0.00  0.00    +0.002 C 
ATOM      7  C   UNK A   1     153.836 160.633 187.688  0.00  0.00    -0.006 A 
ATOM      8  C   UNK A   5     155.013 160.529 186.972  0.00  0.00    +0.078 A 
ATOM      9  N   UNK A   5     155.070 159.294 186.394  0.00  0.00    -0.349 N 
ATOM     10  C   UNK A   5     153.914 158.597 186.646  0.00  0.00    +0.048 A 
ATOM     11  C   UNK A   5     153.520 157.323 186.222  0.00  0.00    -0.038 A 
ATOM     12  C   UNK A   5     152.276 156.852 186.652  0.00  0.00    -0.060 A 
ATOM     13  C   UNK A   5     151.469 157.622 187.482  0.00  0.00    -0.061 A 
ATOM     14  C   UNK A   5     151.884 158.890 187.907  0.00  0.00    -0.052 A 
ATOM     15  C   UNK A   5     153.128 159.400 187.477  0.00  0.00    +0.004 A 
ATOM     16  S   UNK A   5     156.352 161.613 186.794  0.00  0.00    -0.105 S 
ATOM     17  C   UNK A   5     156.408 161.887 184.990  0.00  0.00    +0.027 C 
ATOM     18  C   UNK A   5     156.209 163.338 184.540  0.00  0.00    +0.109 C 
ATOM     19  C   UNK A   5     154.722 163.759 184.587  0.00  0.00    +0.237 C 
ATOM     20  O   UNK A   5     154.140 164.000 185.652  0.00  0.00    -0.274 OA
ATOM     21  N   HYP A   6     154.067 163.917 183.383  0.00  0.00    -0.286 N 
ATOM     22  CD  HYP A   6     154.573 163.604 182.051  0.00  0.00    +0.042 C 
ATOM     23  CG  HYP A   6     153.361 163.789 181.141  0.00  0.00    +0.073 C 
ATOM     24  CB  HYP A   6     152.615 164.944 181.801  0.00  0.00    +0.002 C 
ATOM     25  CA  HYP A   6     152.832 164.706 183.301  0.00  0.00    +0.105 C 
ATOM     26  C   HYP A   6     151.602 164.032 183.923  0.00  0.00    +0.234 C 
ATOM     27  O   HYP A   6     150.602 164.673 184.237  0.00  0.00    -0.274 OA
ATOM     28  N   ALA A   7     151.668 162.664 184.021  0.00  0.00    -0.303 N 
ATOM     29  N   UNK A   5     156.942 164.332 185.311  0.00  0.00    -0.302 N 
ATOM     30  C   THR A   4     157.157 165.594 184.798  0.00  0.00    +0.237 C 
ATOM     31  O   THR A   4     156.992 165.839 183.603  0.00  0.00    -0.274 OA
ATOM     32  CA  THR A   4     157.632 166.643 185.826  0.00  0.00    +0.125 C 
ATOM     33  N   THR A   4     156.618 166.767 186.883  0.00  0.00    -0.300 N 
ATOM     34  C   ALA A   3     156.540 165.901 187.949  0.00  0.00    +0.234 C 
ATOM     35  O   ALA A   3     157.292 164.933 188.039  0.00  0.00    -0.274 OA
ATOM     36  CA  ALA A   3     155.439 166.244 188.963  0.00  0.00    +0.097 C 
ATOM     37  N   ALA A   3     154.132 166.060 188.343  0.00  0.00    -0.303 N 
ATOM     38  C   UNK A   2     153.019 166.729 188.819  0.00  0.00    +0.234 C 
ATOM     39  O   UNK A   2     153.128 167.717 189.545  0.00  0.00    -0.274 OA
ATOM     40  C   UNK A   2     151.659 166.239 188.243  0.00  0.00    +0.102 C 
ATOM     41  N   UNK A   2     151.732 164.827 187.879  0.00  0.00    -0.302 N 
ATOM     42  C   UNK A   1     151.936 163.806 188.779  0.00  0.00    +0.234 C 
ATOM     43  O   UNK A   1     152.102 163.998 189.982  0.00  0.00    -0.274 OA
ATOM     44  HA  ALA A   7     149.635 162.257 184.237  0.00  0.00    +0.059 HD
ATOM     45  H   UNK A   1     152.544 162.701 186.116  0.00  0.00    +0.150 HD
ATOM     46  H   UNK A   1     151.232 161.804 188.642  0.00  0.00    +0.060 HD
ATOM     47  H   UNK A   1     154.152 162.600 188.455  0.00  0.00    +0.034 HD
ATOM     48  H   UNK A   1     153.395 161.500 189.581  0.00  0.00    +0.034 HD
ATOM     49  H   UNK A   5     155.856 158.938 185.872  0.00  0.00    +0.166 HD
ATOM     50  H   UNK A   5     154.152 156.714 185.585  0.00  0.00    +0.064 HD
ATOM     51  H   UNK A   5     151.939 155.866 186.338  0.00  0.00    +0.062 HD
ATOM     52  H   UNK A   5     150.506 157.238 187.810  0.00  0.00    +0.062 HD
ATOM     53  H   UNK A   5     151.237 159.471 188.558  0.00  0.00    +0.062 HD
ATOM     54  H   UNK A   5     157.409 161.564 184.681  0.00  0.00    +0.040 HD
ATOM     55  H   UNK A   5     155.692 161.236 184.475  0.00  0.00    +0.040 HD
ATOM     56  H   UNK A   5     156.577 163.407 183.513  0.00  0.00    +0.060 HD
ATOM     57  HD1 HYP A   6     154.981 162.589 182.039  0.00  0.00    +0.049 HD
ATOM     58  HD2 HYP A   6     155.358 164.329 181.813  0.00  0.00    +0.049 HD
ATOM     59  HG  HYP A   6     153.646 163.992 180.103  0.00  0.00    +0.061 HD
ATOM     60  HB1 HYP A   6     153.086 165.893 181.514  0.00  0.00    +0.031 HD
ATOM     61  HB2 HYP A   6     151.558 164.981 181.523  0.00  0.00    +0.031 HD
ATOM     62  HA  HYP A   6     152.983 165.651 183.839  0.00  0.00    +0.060 HD
ATOM     63  H   ALA A   7     152.454 162.190 183.585  0.00  0.00    +0.149 HD
ATOM     64  H   UNK A   5     157.067 164.181 186.317  0.00  0.00    +0.150 HD
ATOM     65  HA  THR A   4     158.559 166.283 186.291  0.00  0.00    +0.062 HD
ATOM     66  H   THR A   4     155.965 167.545 186.836  0.00  0.00    +0.150 HD
ATOM     67  HA  ALA A   3     155.558 167.299 189.241  0.00  0.00    +0.059 HD
ATOM     68  H   ALA A   3     153.988 165.301 187.682  0.00  0.00    +0.149 HD
ATOM     69  H   UNK A   2     151.543 166.779 187.296  0.00  0.00    +0.060 HD
ATOM     70  H   UNK A   2     151.343 164.563 186.976  0.00  0.00    +0.150 HD
ENDROOT
BRANCH   1  71
ATOM     71  CB  ALA A   7     150.766 160.409 184.296  0.00  0.00    -0.038 C 
ATOM     72  HB1 ALA A   7     151.514 159.944 184.947  0.00  0.00    +0.025 HD
ATOM     73  HB2 ALA A   7     149.821 159.871 184.412  0.00  0.00    +0.025 HD
ATOM     74  HB3 ALA A   7     151.094 160.280 183.259  0.00  0.00    +0.025 HD
ENDBRANCH   1  71
BRANCH  36  75
ATOM     75  CB  ALA A   3     155.561 165.386 190.217  0.00  0.00    -0.038 C 
ATOM     76  HB1 ALA A   3     154.574 165.117 190.606  0.00  0.00    +0.025 HD
ATOM     77  HB2 ALA A   3     156.100 164.454 190.010  0.00  0.00    +0.025 HD
ATOM     78  HB3 ALA A   3     156.104 165.918 191.005  0.00  0.00    +0.025 HD
ENDBRANCH  36  75
BRANCH  40  79
ATOM     79  C   UNK A   2     150.501 166.605 189.186  0.00  0.00    +0.005 C 
ATOM     80  H   UNK A   2     150.776 167.554 189.669  0.00  0.00    +0.032 HD
ATOM     81  H   UNK A   2     150.428 165.875 190.002  0.00  0.00    +0.032 HD
BRANCH  79  82
ATOM     82  C   UNK A   2     149.108 166.814 188.555  0.00  0.00    +0.088 C 
BRANCH  82  83
ATOM     83  C   UNK A   2     148.239 167.612 189.537  0.00  0.00    -0.034 C 
ATOM     84  H   UNK A   2     147.176 167.525 189.284  0.00  0.00    +0.026 HD
ATOM     85  H   UNK A   2     148.341 167.220 190.555  0.00  0.00    +0.026 HD
ATOM     86  H   UNK A   2     148.511 168.673 189.544  0.00  0.00    +0.026 HD
ENDBRANCH  82  83
BRANCH  82  87
ATOM     87  C   UNK A   2     148.373 165.505 188.196  0.00  0.00    +0.073 C 
ATOM     88  H   UNK A   2     148.487 164.750 188.980  0.00  0.00    +0.059 HD
ATOM     89  H   UNK A   2     147.304 165.689 188.041  0.00  0.00    +0.059 HD
BRANCH  87  90
ATOM     90  O   UNK A   2     148.873 164.997 186.961  0.00  0.00    -0.392 OA
ATOM     91  H   UNK A   2     149.850 165.029 187.031  0.00  0.00    +0.210 HD
ENDBRANCH  87  90
ENDBRANCH  82  87
BRANCH  82  92
ATOM     92  O   UNK A   2     149.243 167.609 187.366  0.00  0.00    -0.387 OA
ATOM     93  H   UNK A   2     149.963 168.248 187.565  0.00  0.00    +0.210 HD
ENDBRANCH  82  92
ENDBRANCH  79  82
ENDBRANCH  40  79
BRANCH  23  94
ATOM     94  OD  HYP A   6     152.569 162.602 181.167  0.00  0.00    -0.390 OA
ATOM     95  HD  HYP A   6     152.696 162.146 180.313  0.00  0.00    +0.210 HD
ENDBRANCH  23  94
BRANCH  32  96
ATOM     96  CB  THR A   4     157.875 168.014 185.154  0.00  0.00    +0.079 C 
ATOM     97  HB  THR A   4     157.942 167.897 184.065  0.00  0.00    +0.061 HD
BRANCH  96  98
ATOM     98  CG2 THR A   4     159.134 168.703 185.669  0.00  0.00    -0.037 C 
ATOM     99 HG21 THR A   4     159.167 168.660 186.763  0.00  0.00    +0.026 HD
ATOM    100 HG22 THR A   4     159.180 169.752 185.363  0.00  0.00    +0.026 HD
ATOM    101 HG23 THR A   4     160.034 168.194 185.309  0.00  0.00    +0.026 HD
ENDBRANCH  96  98
BRANCH  96 102
ATOM    102  OG1 THR A   4     156.760 168.889 185.391  0.00  0.00    -0.390 OA
ATOM    103  HG1 THR A   4     156.734 169.545 184.671  0.00  0.00    +0.210 HD
ENDBRANCH  96 102
ENDBRANCH  32  96
TORSDOF 12
ENDMDL
