MODEL 1
REMARK VINA RESULT:      -5.0      0.000      0.000
REMARK  Name = Reidispongiolide A_conf2
REMARK  33 active torsions:
REMARK  status: ('A' for Active; 'I' for Inactive)
REMARK    1  A    between atoms: C_1  and  C_2
REMARK    2  A    between atoms: C_5  and  O_67
REMARK    3  A    between atoms: C_7  and  O_65
REMARK    4  A    between atoms: C_8  and  C_64
REMARK    5  A    between atoms: C_17  and  O_62
REMARK    6  A    between atoms: C_19  and  C_61
REMARK    7  A    between atoms: C_26  and  C_38
REMARK    8  A    between atoms: C_27  and  C_37
REMARK    9  A    between atoms: C_30  and  O_35
REMARK   10  A    between atoms: C_32  and  O_33
REMARK   11  A    between atoms: O_33  and  C_34
REMARK   12  A    between atoms: O_35  and  C_36
REMARK   13  A    between atoms: C_38  and  C_39
REMARK   14  A    between atoms: C_38  and  C_40
REMARK   15  A    between atoms: C_40  and  C_41
REMARK   16  A    between atoms: C_40  and  O_59
REMARK   17  A    between atoms: C_41  and  C_42
REMARK   18  A    between atoms: C_41  and  C_43
REMARK   19  A    between atoms: C_43  and  C_44
REMARK   20  A    between atoms: C_44  and  C_45
REMARK   21  A    between atoms: C_45  and  C_47
REMARK   22  A    between atoms: C_47  and  C_48
REMARK   23  A    between atoms: C_47  and  C_49
REMARK   24  A    between atoms: C_49  and  C_50
REMARK   25  A    between atoms: C_49  and  O_57
REMARK   26  A    between atoms: C_50  and  C_51
REMARK   27  A    between atoms: C_52  and  N_53
REMARK   28  A    between atoms: N_53  and  C_54
REMARK   29  A    between atoms: O_57  and  C_58
REMARK   30  A    between atoms: O_59  and  C_60
REMARK   31  A    between atoms: O_62  and  C_63
REMARK   32  A    between atoms: O_65  and  C_66
REMARK   33  A    between atoms: O_67  and  C_68
REMARK                            x       y       z     vdW  Elec       q    Type
REMARK                         _______ _______ _______ _____ _____    ______ ____
ROOT
ATOM      1  C   UNL     1     147.193 166.821 185.436  0.00  0.00    +0.001 C 
ATOM      2  C   UNL     1     146.546 165.617 186.098  0.00  0.00    -0.080 C 
ATOM      3  C   UNL     1     147.133 164.842 187.030  0.00  0.00    -0.059 C 
ATOM      4  C   UNL     1     146.557 163.629 187.718  0.00  0.00    +0.079 C 
ATOM      5  C   UNL     1     147.577 162.467 187.790  0.00  0.00    +0.004 C 
ATOM      6  C   UNL     1     147.659 161.558 186.547  0.00  0.00    +0.067 C 
ATOM      7  C   UNL     1     148.995 161.566 185.744  0.00  0.00    +0.020 C 
ATOM      8  C   UNL     1     150.317 161.081 186.408  0.00  0.00    +0.112 C 
ATOM      9  C   UNL     1     151.044 162.080 187.318  0.00  0.00    +0.006 C 
ATOM     10  C   UNL     1     152.288 161.464 187.887  0.00  0.00    -0.057 C 
ATOM     11  C   UNL     1     152.356 160.122 187.987  0.00  0.00    +0.022 C 
ATOM     12  C   UNL     1     151.220 159.237 187.649  0.00  0.00    +0.332 C 
ATOM     13  O   UNL     1     151.250 158.051 187.942  0.00  0.00    -0.246 OA
ATOM     14  O   UNL     1     150.138 159.822 187.074  0.00  0.00    -0.458 OA
ATOM     15  C   UNL     1     153.363 162.353 188.483  0.00  0.00    -0.004 C 
ATOM     16  C   UNL     1     154.165 163.279 187.536  0.00  0.00    +0.066 C 
ATOM     17  C   UNL     1     153.480 164.628 187.180  0.00  0.00    -0.005 C 
ATOM     18  C   UNL     1     152.797 165.368 188.324  0.00  0.00    -0.070 C 
ATOM     19  C   UNL     1     151.461 165.531 188.313  0.00  0.00    -0.062 C 
ATOM     20  C   UNL     1     150.611 166.140 189.308  0.00  0.00    -0.055 C 
ATOM     21  C   UNL     1     150.609 165.827 190.617  0.00  0.00    +0.023 C 
ATOM     22  C   UNL     1     149.610 166.352 191.577  0.00  0.00    +0.332 C 
ATOM     23  O   UNL     1     149.685 166.163 192.779  0.00  0.00    -0.246 OA
ATOM     24  O   UNL     1     148.609 166.974 190.919  0.00  0.00    -0.457 OA
ATOM     25  C   UNL     1     147.443 167.433 191.666  0.00  0.00    +0.114 C 
ATOM     26  C   UNL     1     147.323 168.957 191.361  0.00  0.00    +0.012 C 
ATOM     27  C   UNL     1     147.371 169.294 189.880  0.00  0.00    -0.079 C 
ATOM     28  C   UNL     1     146.286 169.496 189.116  0.00  0.00    -0.059 C 
ATOM     29  C   UNL     1     146.313 169.936 187.677  0.00  0.00    +0.079 C 
ATOM     30  C   UNL     1     146.142 168.760 186.707  0.00  0.00    +0.004 C 
ATOM     31  C   UNL     1     147.452 167.997 186.428  0.00  0.00    +0.067 C 
ATOM     32  H   UNL     1     146.488 167.179 184.671  0.00  0.00    +0.037 HD
ATOM     33  H   UNL     1     145.538 165.376 185.761  0.00  0.00    +0.057 HD
ATOM     34  H   UNL     1     148.125 165.123 187.372  0.00  0.00    +0.059 HD
ATOM     35  H   UNL     1     146.357 163.958 188.744  0.00  0.00    +0.064 HD
ATOM     36  H   UNL     1     148.547 162.888 188.049  0.00  0.00    +0.032 HD
ATOM     37  H   UNL     1     147.287 161.853 188.656  0.00  0.00    +0.032 HD
ATOM     38  H   UNL     1     146.856 161.843 185.854  0.00  0.00    +0.060 HD
ATOM     39  H   UNL     1     148.830 160.823 184.948  0.00  0.00    +0.036 HD
ATOM     40  H   UNL     1     150.997 160.875 185.563  0.00  0.00    +0.074 HD
ATOM     41  H   UNL     1     150.437 162.397 188.167  0.00  0.00    +0.035 HD
ATOM     42  H   UNL     1     151.302 162.957 186.722  0.00  0.00    +0.035 HD
ATOM     43  H   UNL     1     153.200 159.614 188.439  0.00  0.00    +0.069 HD
ATOM     44  H   UNL     1     154.091 161.707 188.994  0.00  0.00    +0.034 HD
ATOM     45  H   UNL     1     152.916 162.929 189.302  0.00  0.00    +0.034 HD
ATOM     46  H   UNL     1     154.359 162.731 186.602  0.00  0.00    +0.060 HD
ATOM     47  H   UNL     1     152.758 164.444 186.374  0.00  0.00    +0.034 HD
ATOM     48  H   UNL     1     154.211 165.321 186.740  0.00  0.00    +0.034 HD
ATOM     49  H   UNL     1     150.900 165.178 187.447  0.00  0.00    +0.062 HD
ATOM     50  H   UNL     1     149.857 166.816 188.903  0.00  0.00    +0.062 HD
ATOM     51  H   UNL     1     151.321 165.131 191.043  0.00  0.00    +0.069 HD
ATOM     52  H   UNL     1     147.609 167.301 192.743  0.00  0.00    +0.074 HD
ATOM     53  H   UNL     1     146.397 169.362 191.770  0.00  0.00    +0.038 HD
ATOM     54  H   UNL     1     148.361 169.405 189.444  0.00  0.00    +0.057 HD
ATOM     55  H   UNL     1     145.294 169.381 189.556  0.00  0.00    +0.059 HD
ATOM     56  H   UNL     1     147.238 170.481 187.447  0.00  0.00    +0.064 HD
ATOM     57  H   UNL     1     145.752 169.153 185.756  0.00  0.00    +0.032 HD
ATOM     58  H   UNL     1     145.378 168.074 187.088  0.00  0.00    +0.032 HD
ATOM     59  H   UNL     1     147.846 167.611 187.375  0.00  0.00    +0.060 HD
ENDROOT
BRANCH   1  60
ATOM     60  C   UNL     1     148.440 166.393 184.653  0.00  0.00    -0.057 C 
ATOM     61  H   UNL     1     148.174 166.080 183.637  0.00  0.00    +0.024 HD
ATOM     62  H   UNL     1     148.959 165.564 185.138  0.00  0.00    +0.024 HD
ATOM     63  H   UNL     1     149.148 167.224 184.552  0.00  0.00    +0.024 HD
ENDBRANCH   1  60
BRANCH  26  64
ATOM     64  C   UNL     1     148.452 169.725 192.069  0.00  0.00    -0.056 C 
ATOM     65  H   UNL     1     149.423 169.542 191.600  0.00  0.00    +0.024 HD
ATOM     66  H   UNL     1     148.521 169.424 193.121  0.00  0.00    +0.024 HD
ATOM     67  H   UNL     1     148.263 170.803 192.042  0.00  0.00    +0.024 HD
ENDBRANCH  26  64
BRANCH  18  68
ATOM     68  C   UNL     1     153.721 165.900 189.387  0.00  0.00    -0.043 C 
ATOM     69  H   UNL     1     154.480 166.553 188.937  0.00  0.00    +0.027 HD
ATOM     70  H   UNL     1     153.203 166.502 190.143  0.00  0.00    +0.027 HD
ATOM     71  H   UNL     1     154.232 165.079 189.903  0.00  0.00    +0.027 HD
ENDBRANCH  18  68
BRANCH   7  72
ATOM     72  C   UNL     1     149.193 162.897 185.017  0.00  0.00    -0.057 C 
ATOM     73  H   UNL     1     150.190 163.304 185.225  0.00  0.00    +0.023 HD
ATOM     74  H   UNL     1     148.459 163.640 185.355  0.00  0.00    +0.023 HD
ATOM     75  H   UNL     1     149.087 162.789 183.935  0.00  0.00    +0.023 HD
ENDBRANCH   7  72
BRANCH  25  76
ATOM     76  C   UNL     1     146.227 166.536 191.256  0.00  0.00    +0.020 C 
ATOM     77  H   UNL     1     145.653 167.089 190.506  0.00  0.00    +0.036 HD
BRANCH  76  78
ATOM     78  C   UNL     1     146.739 165.257 190.555  0.00  0.00    -0.057 C 
ATOM     79  H   UNL     1     147.616 164.845 191.060  0.00  0.00    +0.023 HD
ATOM     80  H   UNL     1     145.962 164.483 190.539  0.00  0.00    +0.023 HD
ATOM     81  H   UNL     1     147.039 165.443 189.522  0.00  0.00    +0.023 HD
ENDBRANCH  76  78
BRANCH  76  82
ATOM     82  C   UNL     1     145.293 166.103 192.435  0.00  0.00    +0.067 C 
ATOM     83  H   UNL     1     145.341 165.007 192.492  0.00  0.00    +0.060 HD
BRANCH  82  84
ATOM     84  C   UNL     1     143.796 166.507 192.222  0.00  0.00    -0.017 C 
ATOM     85  H   UNL     1     143.266 165.667 191.757  0.00  0.00    +0.032 HD
BRANCH  84  86
ATOM     86  C   UNL     1     143.123 166.748 193.584  0.00  0.00    -0.060 C 
ATOM     87  H   UNL     1     142.270 166.077 193.721  0.00  0.00    +0.023 HD
ATOM     88  H   UNL     1     142.735 167.769 193.657  0.00  0.00    +0.023 HD
ATOM     89  H   UNL     1     143.821 166.592 194.413  0.00  0.00    +0.023 HD
ENDBRANCH  84  86
BRANCH  84  90
ATOM     90  C   UNL     1     143.631 167.748 191.313  0.00  0.00    -0.041 C 
ATOM     91  H   UNL     1     143.351 167.443 190.301  0.00  0.00    +0.027 HD
ATOM     92  H   UNL     1     144.590 168.273 191.214  0.00  0.00    +0.027 HD
BRANCH  90  93
ATOM     93  C   UNL     1     142.570 168.725 191.814  0.00  0.00    +0.007 C 
ATOM     94  H   UNL     1     141.931 168.256 192.569  0.00  0.00    +0.034 HD
ATOM     95  H   UNL     1     143.026 169.601 192.289  0.00  0.00    +0.034 HD
BRANCH  93  96
ATOM     96  C   UNL     1     141.721 169.237 190.667  0.00  0.00    +0.139 C 
ATOM     97  O   UNL     1     141.117 168.443 189.941  0.00  0.00    -0.297 OA
BRANCH  96  98
ATOM     98  C   UNL     1     141.621 170.748 190.473  0.00  0.00    +0.041 C 
ATOM     99  H   UNL     1     140.626 171.048 190.828  0.00  0.00    +0.040 HD
BRANCH  98 100
ATOM    100  C   UNL     1     141.643 171.095 188.979  0.00  0.00    -0.053 C 
ATOM    101  H   UNL     1     142.096 170.292 188.387  0.00  0.00    +0.024 HD
ATOM    102  H   UNL     1     142.234 172.001 188.805  0.00  0.00    +0.024 HD
ATOM    103  H   UNL     1     140.637 171.283 188.589  0.00  0.00    +0.024 HD
ENDBRANCH  98 100
BRANCH  98 104
ATOM    104  C   UNL     1     142.667 171.531 191.303  0.00  0.00    +0.071 C 
ATOM    105  H   UNL     1     142.950 170.903 192.161  0.00  0.00    +0.061 HD
BRANCH 104 106
ATOM    106  C   UNL     1     143.941 171.931 190.515  0.00  0.00    -0.006 C 
ATOM    107  H   UNL     1     144.359 171.065 189.987  0.00  0.00    +0.033 HD
ATOM    108  H   UNL     1     143.689 172.648 189.725  0.00  0.00    +0.033 HD
BRANCH 106 109
ATOM    109  C   UNL     1     144.963 172.585 191.401  0.00  0.00    -0.067 C 
ATOM    110  C   UNL     1     146.279 172.579 191.148  0.00  0.00    -0.005 C 
ATOM    111  H   UNL     1     144.567 173.070 192.287  0.00  0.00    +0.059 HD
ATOM    112  H   UNL     1     146.631 172.107 190.231  0.00  0.00    +0.078 HD
BRANCH 110 113
ATOM    113  N   UNL     1     147.279 173.109 191.946  0.00  0.00    -0.284 N 
ATOM    114  C   UNL     1     148.589 173.348 191.538  0.00  0.00    +0.206 C 
ATOM    115  O   UNL     1     149.083 173.225 190.424  0.00  0.00    -0.279 OA
ATOM    116  H   UNL     1     149.215 173.718 192.370  0.00  0.00    +0.126 HD
BRANCH 113 117
ATOM    117  C   UNL     1     146.877 173.554 193.275  0.00  0.00    +0.007 C 
ATOM    118  H   UNL     1     147.774 173.667 193.893  0.00  0.00    +0.043 HD
ATOM    119  H   UNL     1     146.352 174.510 193.200  0.00  0.00    +0.043 HD
ATOM    120  H   UNL     1     146.218 172.828 193.761  0.00  0.00    +0.043 HD
ENDBRANCH 113 117
ENDBRANCH 110 113
ENDBRANCH 106 109
ENDBRANCH 104 106
BRANCH 104 121
ATOM    121  O   UNL     1     142.031 172.719 191.813  0.00  0.00    -0.379 OA
BRANCH 121 122
ATOM    122  C   UNL     1     140.840 172.452 192.545  0.00  0.00    +0.037 C 
ATOM    123  H   UNL     1     140.318 173.390 192.757  0.00  0.00    +0.052 HD
ATOM    124  H   UNL     1     140.172 171.773 192.004  0.00  0.00    +0.052 HD
ATOM    125  H   UNL     1     141.121 171.991 193.494  0.00  0.00    +0.052 HD
ENDBRANCH 121 122
ENDBRANCH 104 121
ENDBRANCH  98 104
ENDBRANCH  96  98
ENDBRANCH  93  96
ENDBRANCH  90  93
ENDBRANCH  84  90
ENDBRANCH  82  84
BRANCH  82 126
ATOM    126  O   UNL     1     145.719 166.663 193.676  0.00  0.00    -0.379 OA
BRANCH 126 127
ATOM    127  C   UNL     1     146.419 165.739 194.502  0.00  0.00    +0.037 C 
ATOM    128  H   UNL     1     147.428 165.619 194.101  0.00  0.00    +0.052 HD
ATOM    129  H   UNL     1     146.490 166.108 195.527  0.00  0.00    +0.052 HD
ATOM    130  H   UNL     1     145.922 164.763 194.489  0.00  0.00    +0.052 HD
ENDBRANCH 126 127
ENDBRANCH  82 126
ENDBRANCH  76  82
ENDBRANCH  25  76
BRANCH  31 131
ATOM    131  O   UNL     1     148.380 168.930 185.852  0.00  0.00    -0.379 OA
BRANCH 131 132
ATOM    132  C   UNL     1     147.775 169.848 184.949  0.00  0.00    +0.037 C 
ATOM    133  H   UNL     1     148.527 170.426 184.404  0.00  0.00    +0.052 HD
ATOM    134  H   UNL     1     147.184 169.278 184.225  0.00  0.00    +0.052 HD
ATOM    135  H   UNL     1     147.104 170.524 185.485  0.00  0.00    +0.052 HD
ENDBRANCH 131 132
ENDBRANCH  31 131
BRANCH  29 136
ATOM    136  O   UNL     1     145.188 170.807 187.490  0.00  0.00    -0.376 OA
BRANCH 136 137
ATOM    137  C   UNL     1     145.579 172.135 187.160  0.00  0.00    +0.037 C 
ATOM    138  H   UNL     1     145.199 172.419 186.173  0.00  0.00    +0.052 HD
ATOM    139  H   UNL     1     146.672 172.176 187.139  0.00  0.00    +0.052 HD
ATOM    140  H   UNL     1     145.218 172.839 187.919  0.00  0.00    +0.052 HD
ENDBRANCH 136 137
ENDBRANCH  29 136
BRANCH  16 141
ATOM    141  O   UNL     1     155.433 163.521 188.179  0.00  0.00    -0.379 OA
BRANCH 141 142
ATOM    142  C   UNL     1     156.392 164.166 187.349  0.00  0.00    +0.037 C 
ATOM    143  H   UNL     1     157.342 164.296 187.875  0.00  0.00    +0.052 HD
ATOM    144  H   UNL     1     156.571 163.531 186.479  0.00  0.00    +0.052 HD
ATOM    145  H   UNL     1     156.021 165.133 186.997  0.00  0.00    +0.052 HD
ENDBRANCH 141 142
ENDBRANCH  16 141
BRANCH   6 146
ATOM    146  O   UNL     1     147.379 160.228 187.021  0.00  0.00    -0.379 OA
BRANCH 146 147
ATOM    147  C   UNL     1     146.067 159.772 186.716  0.00  0.00    +0.037 C 
ATOM    148  H   UNL     1     145.455 159.675 187.617  0.00  0.00    +0.052 HD
ATOM    149  H   UNL     1     145.597 160.503 186.055  0.00  0.00    +0.052 HD
ATOM    150  H   UNL     1     146.111 158.812 186.192  0.00  0.00    +0.052 HD
ENDBRANCH 146 147
ENDBRANCH   6 146
BRANCH   4 151
ATOM    151  O   UNL     1     145.316 163.254 187.123  0.00  0.00    -0.376 OA
BRANCH 151 152
ATOM    152  C   UNL     1     144.331 162.870 188.078  0.00  0.00    +0.037 C 
ATOM    153  H   UNL     1     143.950 163.745 188.614  0.00  0.00    +0.052 HD
ATOM    154  H   UNL     1     143.499 162.406 187.541  0.00  0.00    +0.052 HD
ATOM    155  H   UNL     1     144.734 162.138 188.782  0.00  0.00    +0.052 HD
ENDBRANCH 151 152
ENDBRANCH   4 151
TORSDOF 33
ENDMDL
MODEL 2
REMARK VINA RESULT:      -5.0      2.202      3.947
REMARK  Name = Reidispongiolide A_conf2
REMARK  33 active torsions:
REMARK  status: ('A' for Active; 'I' for Inactive)
REMARK    1  A    between atoms: C_1  and  C_2
REMARK    2  A    between atoms: C_5  and  O_67
REMARK    3  A    between atoms: C_7  and  O_65
REMARK    4  A    between atoms: C_8  and  C_64
REMARK    5  A    between atoms: C_17  and  O_62
REMARK    6  A    between atoms: C_19  and  C_61
REMARK    7  A    between atoms: C_26  and  C_38
REMARK    8  A    between atoms: C_27  and  C_37
REMARK    9  A    between atoms: C_30  and  O_35
REMARK   10  A    between atoms: C_32  and  O_33
REMARK   11  A    between atoms: O_33  and  C_34
REMARK   12  A    between atoms: O_35  and  C_36
REMARK   13  A    between atoms: C_38  and  C_39
REMARK   14  A    between atoms: C_38  and  C_40
REMARK   15  A    between atoms: C_40  and  C_41
REMARK   16  A    between atoms: C_40  and  O_59
REMARK   17  A    between atoms: C_41  and  C_42
REMARK   18  A    between atoms: C_41  and  C_43
REMARK   19  A    between atoms: C_43  and  C_44
REMARK   20  A    between atoms: C_44  and  C_45
REMARK   21  A    between atoms: C_45  and  C_47
REMARK   22  A    between atoms: C_47  and  C_48
REMARK   23  A    between atoms: C_47  and  C_49
REMARK   24  A    between atoms: C_49  and  C_50
REMARK   25  A    between atoms: C_49  and  O_57
REMARK   26  A    between atoms: C_50  and  C_51
REMARK   27  A    between atoms: C_52  and  N_53
REMARK   28  A    between atoms: N_53  and  C_54
REMARK   29  A    between atoms: O_57  and  C_58
REMARK   30  A    between atoms: O_59  and  C_60
REMARK   31  A    between atoms: O_62  and  C_63
REMARK   32  A    between atoms: O_65  and  C_66
REMARK   33  A    between atoms: O_67  and  C_68
REMARK                            x       y       z     vdW  Elec       q    Type
REMARK                         _______ _______ _______ _____ _____    ______ ____
ROOT
ATOM      1  C   UNL     1     146.582 167.382 185.956  0.00  0.00    +0.001 C 
ATOM      2  C   UNL     1     146.243 166.104 186.704  0.00  0.00    -0.080 C 
ATOM      3  C   UNL     1     147.133 165.338 187.363  0.00  0.00    -0.059 C 
ATOM      4  C   UNL     1     146.869 164.055 188.114  0.00  0.00    +0.079 C 
ATOM      5  C   UNL     1     147.931 162.975 187.799  0.00  0.00    +0.004 C 
ATOM      6  C   UNL     1     147.685 162.128 186.534  0.00  0.00    +0.067 C 
ATOM      7  C   UNL     1     148.708 162.274 185.368  0.00  0.00    +0.020 C 
ATOM      8  C   UNL     1     150.198 161.865 185.570  0.00  0.00    +0.112 C 
ATOM      9  C   UNL     1     151.105 162.878 186.280  0.00  0.00    +0.006 C 
ATOM     10  C   UNL     1     152.499 162.336 186.407  0.00  0.00    -0.057 C 
ATOM     11  C   UNL     1     152.676 161.001 186.395  0.00  0.00    +0.022 C 
ATOM     12  C   UNL     1     151.547 160.046 186.359  0.00  0.00    +0.332 C 
ATOM     13  O   UNL     1     151.737 158.854 186.553  0.00  0.00    -0.246 OA
ATOM     14  O   UNL     1     150.308 160.569 186.176  0.00  0.00    -0.458 OA
ATOM     15  C   UNL     1     153.648 163.279 186.707  0.00  0.00    -0.004 C 
ATOM     16  C   UNL     1     154.065 164.305 185.623  0.00  0.00    +0.066 C 
ATOM     17  C   UNL     1     153.223 165.610 185.578  0.00  0.00    -0.005 C 
ATOM     18  C   UNL     1     152.879 166.245 186.920  0.00  0.00    -0.070 C 
ATOM     19  C   UNL     1     151.595 166.305 187.323  0.00  0.00    -0.062 C 
ATOM     20  C   UNL     1     151.054 166.803 188.565  0.00  0.00    -0.055 C 
ATOM     21  C   UNL     1     151.471 166.435 189.790  0.00  0.00    +0.023 C 
ATOM     22  C   UNL     1     150.783 166.839 191.039  0.00  0.00    +0.332 C 
ATOM     23  O   UNL     1     151.233 166.605 192.148  0.00  0.00    -0.246 OA
ATOM     24  O   UNL     1     149.593 167.410 190.755  0.00  0.00    -0.457 OA
ATOM     25  C   UNL     1     148.685 167.745 191.846  0.00  0.00    +0.114 C 
ATOM     26  C   UNL     1     148.385 169.266 191.690  0.00  0.00    +0.012 C 
ATOM     27  C   UNL     1     147.959 169.669 190.289  0.00  0.00    -0.079 C 
ATOM     28  C   UNL     1     146.682 169.818 189.903  0.00  0.00    -0.059 C 
ATOM     29  C   UNL     1     146.241 170.321 188.554  0.00  0.00    +0.079 C 
ATOM     30  C   UNL     1     145.853 169.178 187.607  0.00  0.00    +0.004 C 
ATOM     31  C   UNL     1     147.060 168.531 186.897  0.00  0.00    +0.067 C 
ATOM     32  H   UNL     1     145.657 167.717 185.465  0.00  0.00    +0.037 HD
ATOM     33  H   UNL     1     145.197 165.801 186.672  0.00  0.00    +0.057 HD
ATOM     34  H   UNL     1     148.163 165.681 187.407  0.00  0.00    +0.059 HD
ATOM     35  H   UNL     1     146.972 164.324 189.171  0.00  0.00    +0.064 HD
ATOM     36  H   UNL     1     148.907 163.457 187.780  0.00  0.00    +0.032 HD
ATOM     37  H   UNL     1     147.957 162.303 188.672  0.00  0.00    +0.032 HD
ATOM     38  H   UNL     1     146.693 162.380 186.136  0.00  0.00    +0.060 HD
ATOM     39  H   UNL     1     148.354 161.556 184.613  0.00  0.00    +0.036 HD
ATOM     40  H   UNL     1     150.597 161.749 184.547  0.00  0.00    +0.074 HD
ATOM     41  H   UNL     1     150.768 163.110 187.291  0.00  0.00    +0.035 HD
ATOM     42  H   UNL     1     151.115 163.796 185.692  0.00  0.00    +0.035 HD
ATOM     43  H   UNL     1     153.646 160.540 186.538  0.00  0.00    +0.069 HD
ATOM     44  H   UNL     1     154.535 162.671 186.932  0.00  0.00    +0.034 HD
ATOM     45  H   UNL     1     153.438 163.784 187.658  0.00  0.00    +0.034 HD
ATOM     46  H   UNL     1     153.997 163.813 184.641  0.00  0.00    +0.060 HD
ATOM     47  H   UNL     1     152.302 165.406 185.018  0.00  0.00    +0.034 HD
ATOM     48  H   UNL     1     153.741 166.376 184.983  0.00  0.00    +0.034 HD
ATOM     49  H   UNL     1     150.820 165.947 186.646  0.00  0.00    +0.062 HD
ATOM     50  H   UNL     1     150.173 167.436 188.450  0.00  0.00    +0.062 HD
ATOM     51  H   UNL     1     152.321 165.779 189.936  0.00  0.00    +0.069 HD
ATOM     52  H   UNL     1     149.181 167.580 192.813  0.00  0.00    +0.074 HD
ATOM     53  H   UNL     1     147.606 169.580 192.385  0.00  0.00    +0.038 HD
ATOM     54  H   UNL     1     148.759 169.875 189.583  0.00  0.00    +0.057 HD
ATOM     55  H   UNL     1     145.881 169.608 190.613  0.00  0.00    +0.059 HD
ATOM     56  H   UNL     1     147.017 170.945 188.091  0.00  0.00    +0.064 HD
ATOM     57  H   UNL     1     145.169 169.579 186.845  0.00  0.00    +0.032 HD
ATOM     58  H   UNL     1     145.286 168.418 188.156  0.00  0.00    +0.032 HD
ATOM     59  H   UNL     1     147.747 168.136 187.655  0.00  0.00    +0.060 HD
ENDROOT
BRANCH   1  60
ATOM     60  C   UNL     1     147.554 167.086 184.808  0.00  0.00    -0.057 C 
ATOM     61  H   UNL     1     148.240 166.276 185.077  0.00  0.00    +0.024 HD
ATOM     62  H   UNL     1     148.151 167.962 184.545  0.00  0.00    +0.024 HD
ATOM     63  H   UNL     1     147.017 166.760 183.910  0.00  0.00    +0.024 HD
ENDBRANCH   1  60
BRANCH  26  64
ATOM     64  C   UNL     1     149.628 170.088 192.073  0.00  0.00    -0.056 C 
ATOM     65  H   UNL     1     149.859 170.001 193.138  0.00  0.00    +0.024 HD
ATOM     66  H   UNL     1     149.473 171.148 191.844  0.00  0.00    +0.024 HD
ATOM     67  H   UNL     1     150.505 169.750 191.510  0.00  0.00    +0.024 HD
ENDBRANCH  26  64
BRANCH  18  68
ATOM     68  C   UNL     1     154.048 166.801 187.686  0.00  0.00    -0.043 C 
ATOM     69  H   UNL     1     154.771 167.259 186.997  0.00  0.00    +0.027 HD
ATOM     70  H   UNL     1     153.762 167.584 188.399  0.00  0.00    +0.027 HD
ATOM     71  H   UNL     1     154.558 166.008 188.245  0.00  0.00    +0.027 HD
ENDBRANCH  18  68
BRANCH   7  72
ATOM     72  C   UNL     1     148.594 163.646 184.702  0.00  0.00    -0.057 C 
ATOM     73  H   UNL     1     149.332 163.746 183.897  0.00  0.00    +0.023 HD
ATOM     74  H   UNL     1     148.788 164.449 185.425  0.00  0.00    +0.023 HD
ATOM     75  H   UNL     1     147.601 163.810 184.277  0.00  0.00    +0.023 HD
ENDBRANCH   7  72
BRANCH  25  76
ATOM     76  C   UNL     1     147.459 166.774 191.766  0.00  0.00    +0.020 C 
ATOM     77  H   UNL     1     146.558 167.393 191.715  0.00  0.00    +0.036 HD
BRANCH  76  78
ATOM     78  C   UNL     1     147.515 165.978 190.443  0.00  0.00    -0.057 C 
ATOM     79  H   UNL     1     146.708 165.243 190.381  0.00  0.00    +0.023 HD
ATOM     80  H   UNL     1     147.429 166.649 189.579  0.00  0.00    +0.023 HD
ATOM     81  H   UNL     1     148.446 165.419 190.333  0.00  0.00    +0.023 HD
ENDBRANCH  76  78
BRANCH  76  82
ATOM     82  C   UNL     1     147.342 165.751 192.945  0.00  0.00    +0.067 C 
ATOM     83  H   UNL     1     147.764 164.803 192.585  0.00  0.00    +0.060 HD
BRANCH  82  84
ATOM     84  C   UNL     1     145.865 165.481 193.388  0.00  0.00    -0.017 C 
ATOM     85  H   UNL     1     145.479 164.622 192.828  0.00  0.00    +0.032 HD
BRANCH  84  86
ATOM     86  C   UNL     1     145.833 165.084 194.874  0.00  0.00    -0.060 C 
ATOM     87  H   UNL     1     144.844 164.711 195.156  0.00  0.00    +0.023 HD
ATOM     88  H   UNL     1     146.041 165.945 195.517  0.00  0.00    +0.023 HD
ATOM     89  H   UNL     1     146.572 164.307 195.101  0.00  0.00    +0.023 HD
ENDBRANCH  84  86
BRANCH  84  90
ATOM     90  C   UNL     1     144.931 166.688 193.133  0.00  0.00    -0.041 C 
ATOM     91  H   UNL     1     145.059 167.058 192.111  0.00  0.00    +0.027 HD
ATOM     92  H   UNL     1     145.204 167.522 193.791  0.00  0.00    +0.027 HD
BRANCH  90  93
ATOM     93  C   UNL     1     143.453 166.356 193.324  0.00  0.00    +0.007 C 
ATOM     94  H   UNL     1     143.290 165.274 193.316  0.00  0.00    +0.034 HD
ATOM     95  H   UNL     1     143.083 166.722 194.288  0.00  0.00    +0.034 HD
BRANCH  93  96
ATOM     96  C   UNL     1     142.607 167.010 192.249  0.00  0.00    +0.139 C 
ATOM     97  O   UNL     1     141.485 166.567 191.989  0.00  0.00    -0.297 OA
BRANCH  96  98
ATOM     98  C   UNL     1     143.179 168.234 191.539  0.00  0.00    +0.041 C 
ATOM     99  H   UNL     1     144.175 168.413 191.966  0.00  0.00    +0.040 HD
BRANCH  98 100
ATOM    100  C   UNL     1     142.358 169.483 191.887  0.00  0.00    -0.053 C 
ATOM    101  H   UNL     1     142.574 170.309 191.200  0.00  0.00    +0.024 HD
ATOM    102  H   UNL     1     142.598 169.829 192.899  0.00  0.00    +0.024 HD
ATOM    103  H   UNL     1     141.282 169.285 191.858  0.00  0.00    +0.024 HD
ENDBRANCH  98 100
BRANCH  98 104
ATOM    104  C   UNL     1     143.358 168.018 190.017  0.00  0.00    +0.071 C 
ATOM    105  H   UNL     1     144.072 168.772 189.655  0.00  0.00    +0.061 HD
BRANCH 104 106
ATOM    106  C   UNL     1     143.859 166.604 189.626  0.00  0.00    -0.006 C 
ATOM    107  H   UNL     1     144.908 166.639 189.303  0.00  0.00    +0.033 HD
ATOM    108  H   UNL     1     143.855 165.944 190.500  0.00  0.00    +0.033 HD
BRANCH 106 109
ATOM    109  C   UNL     1     142.982 165.969 188.584  0.00  0.00    -0.067 C 
ATOM    110  C   UNL     1     142.131 164.966 188.839  0.00  0.00    -0.005 C 
ATOM    111  H   UNL     1     143.084 166.375 187.582  0.00  0.00    +0.059 HD
ATOM    112  H   UNL     1     142.038 164.610 189.864  0.00  0.00    +0.078 HD
BRANCH 110 113
ATOM    113  N   UNL     1     141.339 164.298 187.921  0.00  0.00    -0.284 N 
ATOM    114  C   UNL     1     141.123 162.922 187.897  0.00  0.00    +0.206 C 
ATOM    115  O   UNL     1     141.501 162.070 188.692  0.00  0.00    -0.279 OA
ATOM    116  H   UNL     1     140.503 162.621 187.035  0.00  0.00    +0.126 HD
BRANCH 113 117
ATOM    117  C   UNL     1     140.587 165.131 186.988  0.00  0.00    +0.007 C 
ATOM    118  H   UNL     1     140.350 164.536 186.100  0.00  0.00    +0.043 HD
ATOM    119  H   UNL     1     139.666 165.476 187.465  0.00  0.00    +0.043 HD
ATOM    120  H   UNL     1     141.167 166.003 186.671  0.00  0.00    +0.043 HD
ENDBRANCH 113 117
ENDBRANCH 110 113
ENDBRANCH 106 109
ENDBRANCH 104 106
BRANCH 104 121
ATOM    121  O   UNL     1     142.090 168.265 189.380  0.00  0.00    -0.379 OA
BRANCH 121 122
ATOM    122  C   UNL     1     142.142 169.292 188.396  0.00  0.00    +0.037 C 
ATOM    123  H   UNL     1     142.936 170.003 188.645  0.00  0.00    +0.052 HD
ATOM    124  H   UNL     1     142.312 168.887 187.393  0.00  0.00    +0.052 HD
ATOM    125  H   UNL     1     141.187 169.822 188.407  0.00  0.00    +0.052 HD
ENDBRANCH 121 122
ENDBRANCH 104 121
ENDBRANCH  98 104
ENDBRANCH  96  98
ENDBRANCH  93  96
ENDBRANCH  90  93
ENDBRANCH  84  90
ENDBRANCH  82  84
BRANCH  82 126
ATOM    126  O   UNL     1     148.066 166.189 194.094  0.00  0.00    -0.379 OA
BRANCH 126 127
ATOM    127  C   UNL     1     149.181 165.363 194.407  0.00  0.00    +0.037 C 
ATOM    128  H   UNL     1     149.871 165.942 195.024  0.00  0.00    +0.052 HD
ATOM    129  H   UNL     1     148.867 164.480 194.967  0.00  0.00    +0.052 HD
ATOM    130  H   UNL     1     149.702 165.060 193.493  0.00  0.00    +0.052 HD
ENDBRANCH 126 127
ENDBRANCH  82 126
ENDBRANCH  76  82
ENDBRANCH  25  76
BRANCH  31 131
ATOM    131  O   UNL     1     147.709 169.557 186.129  0.00  0.00    -0.379 OA
BRANCH 131 132
ATOM    132  C   UNL     1     146.817 170.301 185.308  0.00  0.00    +0.037 C 
ATOM    133  H   UNL     1     146.602 169.776 184.373  0.00  0.00    +0.052 HD
ATOM    134  H   UNL     1     145.878 170.434 185.855  0.00  0.00    +0.052 HD
ATOM    135  H   UNL     1     147.232 171.289 185.092  0.00  0.00    +0.052 HD
ENDBRANCH 131 132
ENDBRANCH  31 131
BRANCH  29 136
ATOM    136  O   UNL     1     145.062 171.109 188.771  0.00  0.00    -0.376 OA
BRANCH 136 137
ATOM    137  C   UNL     1     144.940 171.542 190.121  0.00  0.00    +0.037 C 
ATOM    138  H   UNL     1     145.617 170.980 190.773  0.00  0.00    +0.052 HD
ATOM    139  H   UNL     1     143.911 171.364 190.447  0.00  0.00    +0.052 HD
ATOM    140  H   UNL     1     145.150 172.616 190.198  0.00  0.00    +0.052 HD
ENDBRANCH 136 137
ENDBRANCH  29 136
BRANCH  16 141
ATOM    141  O   UNL     1     155.451 164.617 185.869  0.00  0.00    -0.379 OA
BRANCH 141 142
ATOM    142  C   UNL     1     156.069 165.371 184.831  0.00  0.00    +0.037 C 
ATOM    143  H   UNL     1     157.142 165.163 184.782  0.00  0.00    +0.052 HD
ATOM    144  H   UNL     1     155.623 165.072 183.882  0.00  0.00    +0.052 HD
ATOM    145  H   UNL     1     155.899 166.443 184.969  0.00  0.00    +0.052 HD
ENDBRANCH 141 142
ENDBRANCH  16 141
BRANCH   6 146
ATOM    146  O   UNL     1     147.645 160.762 186.984  0.00  0.00    -0.379 OA
BRANCH 146 147
ATOM    147  C   UNL     1     146.413 160.103 186.716  0.00  0.00    +0.037 C 
ATOM    148  H   UNL     1     146.107 160.230 185.674  0.00  0.00    +0.052 HD
ATOM    149  H   UNL     1     146.549 159.036 186.909  0.00  0.00    +0.052 HD
ATOM    150  H   UNL     1     145.629 160.476 187.383  0.00  0.00    +0.052 HD
ENDBRANCH 146 147
ENDBRANCH   6 146
BRANCH   4 151
ATOM    151  O   UNL     1     145.531 163.612 187.898  0.00  0.00    -0.376 OA
BRANCH 151 152
ATOM    152  C   UNL     1     145.029 162.809 188.962  0.00  0.00    +0.037 C 
ATOM    153  H   UNL     1     144.460 161.960 188.571  0.00  0.00    +0.052 HD
ATOM    154  H   UNL     1     145.881 162.421 189.527  0.00  0.00    +0.052 HD
ATOM    155  H   UNL     1     144.410 163.402 189.641  0.00  0.00    +0.052 HD
ENDBRANCH 151 152
ENDBRANCH   4 151
TORSDOF 33
ENDMDL
MODEL 3
REMARK VINA RESULT:      -4.9      4.601     13.422
REMARK  Name = Reidispongiolide A_conf2
REMARK  33 active torsions:
REMARK  status: ('A' for Active; 'I' for Inactive)
REMARK    1  A    between atoms: C_1  and  C_2
REMARK    2  A    between atoms: C_5  and  O_67
REMARK    3  A    between atoms: C_7  and  O_65
REMARK    4  A    between atoms: C_8  and  C_64
REMARK    5  A    between atoms: C_17  and  O_62
REMARK    6  A    between atoms: C_19  and  C_61
REMARK    7  A    between atoms: C_26  and  C_38
REMARK    8  A    between atoms: C_27  and  C_37
REMARK    9  A    between atoms: C_30  and  O_35
REMARK   10  A    between atoms: C_32  and  O_33
REMARK   11  A    between atoms: O_33  and  C_34
REMARK   12  A    between atoms: O_35  and  C_36
REMARK   13  A    between atoms: C_38  and  C_39
REMARK   14  A    between atoms: C_38  and  C_40
REMARK   15  A    between atoms: C_40  and  C_41
REMARK   16  A    between atoms: C_40  and  O_59
REMARK   17  A    between atoms: C_41  and  C_42
REMARK   18  A    between atoms: C_41  and  C_43
REMARK   19  A    between atoms: C_43  and  C_44
REMARK   20  A    between atoms: C_44  and  C_45
REMARK   21  A    between atoms: C_45  and  C_47
REMARK   22  A    between atoms: C_47  and  C_48
REMARK   23  A    between atoms: C_47  and  C_49
REMARK   24  A    between atoms: C_49  and  C_50
REMARK   25  A    between atoms: C_49  and  O_57
REMARK   26  A    between atoms: C_50  and  C_51
REMARK   27  A    between atoms: C_52  and  N_53
REMARK   28  A    between atoms: N_53  and  C_54
REMARK   29  A    between atoms: O_57  and  C_58
REMARK   30  A    between atoms: O_59  and  C_60
REMARK   31  A    between atoms: O_62  and  C_63
REMARK   32  A    between atoms: O_65  and  C_66
REMARK   33  A    between atoms: O_67  and  C_68
REMARK                            x       y       z     vdW  Elec       q    Type
REMARK                         _______ _______ _______ _____ _____    ______ ____
ROOT
ATOM      1  C   UNL     1     141.518 176.441 188.824  0.00  0.00    +0.001 C 
ATOM      2  C   UNL     1     141.951 175.951 190.195  0.00  0.00    -0.080 C 
ATOM      3  C   UNL     1     141.355 174.958 190.882  0.00  0.00    -0.059 C 
ATOM      4  C   UNL     1     141.723 174.430 192.248  0.00  0.00    +0.079 C 
ATOM      5  C   UNL     1     140.476 174.219 193.139  0.00  0.00    +0.004 C 
ATOM      6  C   UNL     1     139.969 175.459 193.902  0.00  0.00    +0.067 C 
ATOM      7  C   UNL     1     138.562 176.007 193.518  0.00  0.00    +0.020 C 
ATOM      8  C   UNL     1     137.290 175.134 193.731  0.00  0.00    +0.112 C 
ATOM      9  C   UNL     1     136.992 174.072 192.664  0.00  0.00    +0.006 C 
ATOM     10  C   UNL     1     135.747 173.311 193.015  0.00  0.00    -0.057 C 
ATOM     11  C   UNL     1     135.370 173.250 194.307  0.00  0.00    +0.022 C 
ATOM     12  C   UNL     1     136.182 173.819 195.404  0.00  0.00    +0.332 C 
ATOM     13  O   UNL     1     135.912 173.570 196.569  0.00  0.00    -0.246 OA
ATOM     14  O   UNL     1     137.263 174.558 195.045  0.00  0.00    -0.458 OA
ATOM     15  C   UNL     1     135.037 172.499 191.949  0.00  0.00    -0.004 C 
ATOM     16  C   UNL     1     134.339 173.250 190.788  0.00  0.00    +0.066 C 
ATOM     17  C   UNL     1     135.265 173.673 189.614  0.00  0.00    -0.005 C 
ATOM     18  C   UNL     1     136.288 172.645 189.148  0.00  0.00    -0.070 C 
ATOM     19  C   UNL     1     137.603 172.890 189.302  0.00  0.00    -0.062 C 
ATOM     20  C   UNL     1     138.729 172.044 188.991  0.00  0.00    -0.055 C 
ATOM     21  C   UNL     1     138.872 170.769 189.398  0.00  0.00    +0.023 C 
ATOM     22  C   UNL     1     140.114 169.986 189.200  0.00  0.00    +0.332 C 
ATOM     23  O   UNL     1     140.196 168.798 189.462  0.00  0.00    -0.246 OA
ATOM     24  O   UNL     1     141.114 170.790 188.779  0.00  0.00    -0.457 OA
ATOM     25  C   UNL     1     142.463 170.249 188.667  0.00  0.00    +0.114 C 
ATOM     26  C   UNL     1     142.900 170.515 187.195  0.00  0.00    +0.012 C 
ATOM     27  C   UNL     1     142.691 171.949 186.739  0.00  0.00    -0.079 C 
ATOM     28  C   UNL     1     143.650 172.888 186.738  0.00  0.00    -0.059 C 
ATOM     29  C   UNL     1     143.493 174.281 186.190  0.00  0.00    +0.079 C 
ATOM     30  C   UNL     1     143.208 175.310 187.292  0.00  0.00    +0.004 C 
ATOM     31  C   UNL     1     141.723 175.375 187.703  0.00  0.00    +0.067 C 
ATOM     32  H   UNL     1     142.153 177.306 188.581  0.00  0.00    +0.037 HD
ATOM     33  H   UNL     1     142.799 176.473 190.637  0.00  0.00    +0.057 HD
ATOM     34  H   UNL     1     140.533 174.432 190.404  0.00  0.00    +0.059 HD
ATOM     35  H   UNL     1     142.165 173.446 192.057  0.00  0.00    +0.064 HD
ATOM     36  H   UNL     1     139.695 173.774 192.525  0.00  0.00    +0.032 HD
ATOM     37  H   UNL     1     140.747 173.442 193.872  0.00  0.00    +0.032 HD
ATOM     38  H   UNL     1     140.691 176.274 193.759  0.00  0.00    +0.060 HD
ATOM     39  H   UNL     1     138.405 176.847 194.213  0.00  0.00    +0.036 HD
ATOM     40  H   UNL     1     136.450 175.850 193.704  0.00  0.00    +0.074 HD
ATOM     41  H   UNL     1     137.790 173.335 192.567  0.00  0.00    +0.035 HD
ATOM     42  H   UNL     1     136.861 174.578 191.707  0.00  0.00    +0.035 HD
ATOM     43  H   UNL     1     134.515 172.672 194.638  0.00  0.00    +0.069 HD
ATOM     44  H   UNL     1     134.268 171.888 192.445  0.00  0.00    +0.034 HD
ATOM     45  H   UNL     1     135.741 171.753 191.561  0.00  0.00    +0.034 HD
ATOM     46  H   UNL     1     133.865 174.153 191.200  0.00  0.00    +0.060 HD
ATOM     47  H   UNL     1     135.776 174.603 189.897  0.00  0.00    +0.034 HD
ATOM     48  H   UNL     1     134.663 173.949 188.736  0.00  0.00    +0.034 HD
ATOM     49  H   UNL     1     137.908 173.856 189.706  0.00  0.00    +0.062 HD
ATOM     50  H   UNL     1     139.548 172.553 188.480  0.00  0.00    +0.062 HD
ATOM     51  H   UNL     1     138.092 170.248 189.940  0.00  0.00    +0.069 HD
ATOM     52  H   UNL     1     142.451 169.165 188.842  0.00  0.00    +0.074 HD
ATOM     53  H   UNL     1     143.952 170.264 187.052  0.00  0.00    +0.038 HD
ATOM     54  H   UNL     1     141.700 172.195 186.365  0.00  0.00    +0.057 HD
ATOM     55  H   UNL     1     144.642 172.639 187.116  0.00  0.00    +0.059 HD
ATOM     56  H   UNL     1     142.704 174.321 185.427  0.00  0.00    +0.064 HD
ATOM     57  H   UNL     1     143.518 176.299 186.928  0.00  0.00    +0.032 HD
ATOM     58  H   UNL     1     143.833 175.097 188.167  0.00  0.00    +0.032 HD
ATOM     59  H   UNL     1     141.409 174.387 188.060  0.00  0.00    +0.060 HD
ENDROOT
BRANCH   1  60
ATOM     60  C   UNL     1     140.092 177.001 188.884  0.00  0.00    -0.057 C 
ATOM     61  H   UNL     1     139.880 177.621 188.006  0.00  0.00    +0.024 HD
ATOM     62  H   UNL     1     139.934 177.612 189.775  0.00  0.00    +0.024 HD
ATOM     63  H   UNL     1     139.350 176.195 188.889  0.00  0.00    +0.024 HD
ENDBRANCH   1  60
BRANCH  26  64
ATOM     64  C   UNL     1     142.127 169.586 186.243  0.00  0.00    -0.056 C 
ATOM     65  H   UNL     1     141.107 169.941 186.071  0.00  0.00    +0.024 HD
ATOM     66  H   UNL     1     142.069 168.573 186.656  0.00  0.00    +0.024 HD
ATOM     67  H   UNL     1     142.629 169.523 185.271  0.00  0.00    +0.024 HD
ENDBRANCH  26  64
BRANCH  18  68
ATOM     68  C   UNL     1     135.713 171.414 188.501  0.00  0.00    -0.043 C 
ATOM     69  H   UNL     1     136.283 171.159 187.597  0.00  0.00    +0.027 HD
ATOM     70  H   UNL     1     135.749 170.531 189.149  0.00  0.00    +0.027 HD
ATOM     71  H   UNL     1     134.667 171.579 188.215  0.00  0.00    +0.027 HD
ENDBRANCH  18  68
BRANCH   7  72
ATOM     72  C   UNL     1     138.578 176.637 192.124  0.00  0.00    -0.057 C 
ATOM     73  H   UNL     1     139.318 176.140 191.485  0.00  0.00    +0.023 HD
ATOM     74  H   UNL     1     138.853 177.699 192.178  0.00  0.00    +0.023 HD
ATOM     75  H   UNL     1     137.603 176.568 191.635  0.00  0.00    +0.023 HD
ENDBRANCH   7  72
BRANCH  25  76
ATOM     76  C   UNL     1     143.337 170.904 189.789  0.00  0.00    +0.020 C 
ATOM     77  H   UNL     1     143.690 171.867 189.406  0.00  0.00    +0.036 HD
BRANCH  76  78
ATOM     78  C   UNL     1     142.453 171.224 191.016  0.00  0.00    -0.057 C 
ATOM     79  H   UNL     1     142.641 170.531 191.839  0.00  0.00    +0.023 HD
ATOM     80  H   UNL     1     142.642 172.242 191.379  0.00  0.00    +0.023 HD
ATOM     81  H   UNL     1     141.387 171.148 190.790  0.00  0.00    +0.023 HD
ENDBRANCH  76  78
BRANCH  76  82
ATOM     82  C   UNL     1     144.550 170.043 190.276  0.00  0.00    +0.067 C 
ATOM     83  H   UNL     1     144.520 170.044 191.374  0.00  0.00    +0.060 HD
BRANCH  82  84
ATOM     84  C   UNL     1     145.938 170.618 189.833  0.00  0.00    -0.017 C 
ATOM     85  H   UNL     1     146.723 170.154 190.441  0.00  0.00    +0.032 HD
BRANCH  84  86
ATOM     86  C   UNL     1     146.223 170.223 188.375  0.00  0.00    -0.060 C 
ATOM     87  H   UNL     1     145.730 169.281 188.122  0.00  0.00    +0.023 HD
ATOM     88  H   UNL     1     147.295 170.072 188.209  0.00  0.00    +0.023 HD
ATOM     89  H   UNL     1     145.879 170.992 187.673  0.00  0.00    +0.023 HD
ENDBRANCH  84  86
BRANCH  84  90
ATOM     90  C   UNL     1     146.034 172.153 190.004  0.00  0.00    -0.041 C 
ATOM     91  H   UNL     1     145.046 172.609 189.898  0.00  0.00    +0.027 HD
ATOM     92  H   UNL     1     146.652 172.583 189.207  0.00  0.00    +0.027 HD
BRANCH  90  93
ATOM     93  C   UNL     1     146.595 172.573 191.361  0.00  0.00    +0.007 C 
ATOM     94  H   UNL     1     146.234 173.567 191.643  0.00  0.00    +0.034 HD
ATOM     95  H   UNL     1     146.276 171.887 192.154  0.00  0.00    +0.034 HD
BRANCH  93  96
ATOM     96  C   UNL     1     148.111 172.560 191.349  0.00  0.00    +0.139 C 
ATOM     97  O   UNL     1     148.730 173.296 190.576  0.00  0.00    -0.297 OA
BRANCH  96  98
ATOM     98  C   UNL     1     148.824 171.640 192.336  0.00  0.00    +0.041 C 
ATOM     99  H   UNL     1     148.044 171.067 192.856  0.00  0.00    +0.040 HD
BRANCH  98 100
ATOM    100  C   UNL     1     149.517 172.466 193.428  0.00  0.00    -0.053 C 
ATOM    101  H   UNL     1     148.789 173.004 194.047  0.00  0.00    +0.024 HD
ATOM    102  H   UNL     1     150.179 173.215 192.979  0.00  0.00    +0.024 HD
ATOM    103  H   UNL     1     150.130 171.841 194.085  0.00  0.00    +0.024 HD
ENDBRANCH  98 100
BRANCH  98 104
ATOM    104  C   UNL     1     149.763 170.625 191.642  0.00  0.00    +0.071 C 
ATOM    105  H   UNL     1     150.205 171.124 190.768  0.00  0.00    +0.061 HD
BRANCH 104 106
ATOM    106  C   UNL     1     150.895 170.076 192.549  0.00  0.00    -0.006 C 
ATOM    107  H   UNL     1     151.433 170.897 193.039  0.00  0.00    +0.033 HD
ATOM    108  H   UNL     1     150.471 169.486 193.370  0.00  0.00    +0.033 HD
BRANCH 106 109
ATOM    109  C   UNL     1     151.831 169.177 191.791  0.00  0.00    -0.067 C 
ATOM    110  C   UNL     1     151.800 167.840 191.864  0.00  0.00    -0.005 C 
ATOM    111  H   UNL     1     152.560 169.686 191.169  0.00  0.00    +0.059 HD
ATOM    112  H   UNL     1     151.032 167.369 192.477  0.00  0.00    +0.078 HD
BRANCH 110 113
ATOM    113  N   UNL     1     152.664 166.956 191.241  0.00  0.00    -0.284 N 
ATOM    114  C   UNL     1     152.918 166.911 189.872  0.00  0.00    +0.206 C 
ATOM    115  O   UNL     1     152.516 167.659 188.989  0.00  0.00    -0.279 OA
ATOM    116  H   UNL     1     153.598 166.081 189.610  0.00  0.00    +0.126 HD
BRANCH 113 117
ATOM    117  C   UNL     1     153.448 166.093 192.117  0.00  0.00    +0.007 C 
ATOM    118  H   UNL     1     154.200 166.703 192.629  0.00  0.00    +0.043 HD
ATOM    119  H   UNL     1     152.789 165.618 192.850  0.00  0.00    +0.043 HD
ATOM    120  H   UNL     1     153.968 165.312 191.554  0.00  0.00    +0.043 HD
ENDBRANCH 113 117
ENDBRANCH 110 113
ENDBRANCH 106 109
ENDBRANCH 104 106
BRANCH 104 121
ATOM    121  O   UNL     1     148.960 169.527 191.168  0.00  0.00    -0.379 OA
BRANCH 121 122
ATOM    122  C   UNL     1     148.220 168.883 192.200  0.00  0.00    +0.037 C 
ATOM    123  H   UNL     1     148.147 169.542 193.070  0.00  0.00    +0.052 HD
ATOM    124  H   UNL     1     147.215 168.601 191.867  0.00  0.00    +0.052 HD
ATOM    125  H   UNL     1     148.761 167.981 192.493  0.00  0.00    +0.052 HD
ENDBRANCH 121 122
ENDBRANCH 104 121
ENDBRANCH  98 104
ENDBRANCH  96  98
ENDBRANCH  93  96
ENDBRANCH  90  93
ENDBRANCH  84  90
ENDBRANCH  82  84
BRANCH  82 126
ATOM    126  O   UNL     1     144.466 168.701 189.799  0.00  0.00    -0.379 OA
BRANCH 126 127
ATOM    127  C   UNL     1     144.344 167.739 190.840  0.00  0.00    +0.037 C 
ATOM    128  H   UNL     1     145.325 167.288 191.004  0.00  0.00    +0.052 HD
ATOM    129  H   UNL     1     144.014 168.208 191.769  0.00  0.00    +0.052 HD
ATOM    130  H   UNL     1     143.643 166.949 190.550  0.00  0.00    +0.052 HD
ENDBRANCH 126 127
ENDBRANCH  82 126
ENDBRANCH  76  82
ENDBRANCH  25  76
BRANCH  31 131
ATOM    131  O   UNL     1     140.969 175.740 186.535  0.00  0.00    -0.379 OA
BRANCH 131 132
ATOM    132  C   UNL     1     140.006 174.765 186.154  0.00  0.00    +0.037 C 
ATOM    133  H   UNL     1     139.705 174.147 187.005  0.00  0.00    +0.052 HD
ATOM    134  H   UNL     1     139.122 175.286 185.775  0.00  0.00    +0.052 HD
ATOM    135  H   UNL     1     140.400 174.130 185.356  0.00  0.00    +0.052 HD
ENDBRANCH 131 132
ENDBRANCH  31 131
BRANCH  29 136
ATOM    136  O   UNL     1     144.750 174.635 185.595  0.00  0.00    -0.376 OA
BRANCH 136 137
ATOM    137  C   UNL     1     145.859 174.121 186.322  0.00  0.00    +0.037 C 
ATOM    138  H   UNL     1     145.531 173.665 187.262  0.00  0.00    +0.052 HD
ATOM    139  H   UNL     1     146.534 174.950 186.551  0.00  0.00    +0.052 HD
ATOM    140  H   UNL     1     146.403 173.385 185.718  0.00  0.00    +0.052 HD
ENDBRANCH 136 137
ENDBRANCH  29 136
BRANCH  16 141
ATOM    141  O   UNL     1     133.295 172.380 190.308  0.00  0.00    -0.379 OA
BRANCH 141 142
ATOM    142  C   UNL     1     133.030 171.267 191.155  0.00  0.00    +0.037 C 
ATOM    143  H   UNL     1     132.485 170.487 190.617  0.00  0.00    +0.052 HD
ATOM    144  H   UNL     1     133.986 170.851 191.477  0.00  0.00    +0.052 HD
ATOM    145  H   UNL     1     132.472 171.573 192.044  0.00  0.00    +0.052 HD
ENDBRANCH 141 142
ENDBRANCH  16 141
BRANCH   6 146
ATOM    146  O   UNL     1     139.990 175.093 195.294  0.00  0.00    -0.379 OA
BRANCH 146 147
ATOM    147  C   UNL     1     140.169 176.193 196.177  0.00  0.00    +0.037 C 
ATOM    148  H   UNL     1     139.860 175.946 197.197  0.00  0.00    +0.052 HD
ATOM    149  H   UNL     1     141.230 176.451 196.190  0.00  0.00    +0.052 HD
ATOM    150  H   UNL     1     139.608 177.063 195.819  0.00  0.00    +0.052 HD
ENDBRANCH 146 147
ENDBRANCH   6 146
BRANCH   4 151
ATOM    151  O   UNL     1     142.718 175.253 192.854  0.00  0.00    -0.376 OA
BRANCH 151 152
ATOM    152  C   UNL     1     143.984 174.610 192.964  0.00  0.00    +0.037 C 
ATOM    153  H   UNL     1     143.950 173.815 193.716  0.00  0.00    +0.052 HD
ATOM    154  H   UNL     1     144.223 174.157 191.997  0.00  0.00    +0.052 HD
ATOM    155  H   UNL     1     144.769 175.330 193.208  0.00  0.00    +0.052 HD
ENDBRANCH 151 152
ENDBRANCH   4 151
TORSDOF 33
ENDMDL
MODEL 4
REMARK VINA RESULT:      -4.8      3.245      5.552
REMARK  Name = Reidispongiolide A_conf2
REMARK  33 active torsions:
REMARK  status: ('A' for Active; 'I' for Inactive)
REMARK    1  A    between atoms: C_1  and  C_2
REMARK    2  A    between atoms: C_5  and  O_67
REMARK    3  A    between atoms: C_7  and  O_65
REMARK    4  A    between atoms: C_8  and  C_64
REMARK    5  A    between atoms: C_17  and  O_62
REMARK    6  A    between atoms: C_19  and  C_61
REMARK    7  A    between atoms: C_26  and  C_38
REMARK    8  A    between atoms: C_27  and  C_37
REMARK    9  A    between atoms: C_30  and  O_35
REMARK   10  A    between atoms: C_32  and  O_33
REMARK   11  A    between atoms: O_33  and  C_34
REMARK   12  A    between atoms: O_35  and  C_36
REMARK   13  A    between atoms: C_38  and  C_39
REMARK   14  A    between atoms: C_38  and  C_40
REMARK   15  A    between atoms: C_40  and  C_41
REMARK   16  A    between atoms: C_40  and  O_59
REMARK   17  A    between atoms: C_41  and  C_42
REMARK   18  A    between atoms: C_41  and  C_43
REMARK   19  A    between atoms: C_43  and  C_44
REMARK   20  A    between atoms: C_44  and  C_45
REMARK   21  A    between atoms: C_45  and  C_47
REMARK   22  A    between atoms: C_47  and  C_48
REMARK   23  A    between atoms: C_47  and  C_49
REMARK   24  A    between atoms: C_49  and  C_50
REMARK   25  A    between atoms: C_49  and  O_57
REMARK   26  A    between atoms: C_50  and  C_51
REMARK   27  A    between atoms: C_52  and  N_53
REMARK   28  A    between atoms: N_53  and  C_54
REMARK   29  A    between atoms: O_57  and  C_58
REMARK   30  A    between atoms: O_59  and  C_60
REMARK   31  A    between atoms: O_62  and  C_63
REMARK   32  A    between atoms: O_65  and  C_66
REMARK   33  A    between atoms: O_67  and  C_68
REMARK                            x       y       z     vdW  Elec       q    Type
REMARK                         _______ _______ _______ _____ _____    ______ ____
ROOT
ATOM      1  C   UNL     1     149.325 163.161 182.522  0.00  0.00    +0.001 C 
ATOM      2  C   UNL     1     148.846 162.291 183.671  0.00  0.00    -0.080 C 
ATOM      3  C   UNL     1     149.280 162.387 184.943  0.00  0.00    -0.059 C 
ATOM      4  C   UNL     1     148.858 161.552 186.127  0.00  0.00    +0.079 C 
ATOM      5  C   UNL     1     150.071 161.105 186.978  0.00  0.00    +0.004 C 
ATOM      6  C   UNL     1     150.799 159.830 186.507  0.00  0.00    +0.067 C 
ATOM      7  C   UNL     1     152.269 159.988 186.017  0.00  0.00    +0.020 C 
ATOM      8  C   UNL     1     153.379 160.475 186.995  0.00  0.00    +0.112 C 
ATOM      9  C   UNL     1     153.469 161.987 187.243  0.00  0.00    +0.006 C 
ATOM     10  C   UNL     1     154.574 162.295 188.211  0.00  0.00    -0.057 C 
ATOM     11  C   UNL     1     154.964 161.336 189.072  0.00  0.00    +0.022 C 
ATOM     12  C   UNL     1     154.285 160.026 189.170  0.00  0.00    +0.332 C 
ATOM     13  O   UNL     1     154.536 159.265 190.093  0.00  0.00    -0.246 OA
ATOM     14  O   UNL     1     153.337 159.756 188.235  0.00  0.00    -0.458 OA
ATOM     15  C   UNL     1     155.112 163.709 188.312  0.00  0.00    -0.004 C 
ATOM     16  C   UNL     1     155.900 164.289 187.112  0.00  0.00    +0.066 C 
ATOM     17  C   UNL     1     155.033 164.878 185.964  0.00  0.00    -0.005 C 
ATOM     18  C   UNL     1     153.840 165.730 186.379  0.00  0.00    -0.070 C 
ATOM     19  C   UNL     1     152.590 165.307 186.113  0.00  0.00    -0.062 C 
ATOM     20  C   UNL     1     151.329 165.916 186.462  0.00  0.00    -0.055 C 
ATOM     21  C   UNL     1     150.982 166.313 187.701  0.00  0.00    +0.023 C 
ATOM     22  C   UNL     1     149.620 166.781 188.053  0.00  0.00    +0.332 C 
ATOM     23  O   UNL     1     149.344 167.252 189.143  0.00  0.00    -0.246 OA
ATOM     24  O   UNL     1     148.763 166.533 187.040  0.00  0.00    -0.457 OA
ATOM     25  C   UNL     1     147.339 166.777 187.237  0.00  0.00    +0.114 C 
ATOM     26  C   UNL     1     146.920 167.755 186.099  0.00  0.00    +0.012 C 
ATOM     27  C   UNL     1     147.359 167.313 184.713  0.00  0.00    -0.079 C 
ATOM     28  C   UNL     1     146.574 166.654 183.847  0.00  0.00    -0.059 C 
ATOM     29  C   UNL     1     146.953 166.303 182.434  0.00  0.00    +0.079 C 
ATOM     30  C   UNL     1     147.433 164.851 182.304  0.00  0.00    +0.004 C 
ATOM     31  C   UNL     1     148.917 164.659 182.679  0.00  0.00    +0.067 C 
ATOM     32  H   UNL     1     148.841 162.778 181.611  0.00  0.00    +0.037 HD
ATOM     33  H   UNL     1     148.109 161.531 183.414  0.00  0.00    +0.057 HD
ATOM     34  H   UNL     1     149.990 163.175 185.179  0.00  0.00    +0.059 HD
ATOM     35  H   UNL     1     148.252 162.225 186.742  0.00  0.00    +0.064 HD
ATOM     36  H   UNL     1     150.751 161.951 187.065  0.00  0.00    +0.032 HD
ATOM     37  H   UNL     1     149.689 160.936 187.997  0.00  0.00    +0.032 HD
ATOM     38  H   UNL     1     150.223 159.385 185.684  0.00  0.00    +0.060 HD
ATOM     39  H   UNL     1     152.582 158.959 185.780  0.00  0.00    +0.036 HD
ATOM     40  H   UNL     1     154.328 160.180 186.513  0.00  0.00    +0.074 HD
ATOM     41  H   UNL     1     152.555 162.399 187.673  0.00  0.00    +0.035 HD
ATOM     42  H   UNL     1     153.662 162.478 186.289  0.00  0.00    +0.035 HD
ATOM     43  H   UNL     1     155.716 161.507 189.834  0.00  0.00    +0.069 HD
ATOM     44  H   UNL     1     155.777 163.757 189.187  0.00  0.00    +0.034 HD
ATOM     45  H   UNL     1     154.283 164.372 188.588  0.00  0.00    +0.034 HD
ATOM     46  H   UNL     1     156.530 163.489 186.696  0.00  0.00    +0.060 HD
ATOM     47  H   UNL     1     154.694 164.049 185.330  0.00  0.00    +0.034 HD
ATOM     48  H   UNL     1     155.653 165.495 185.298  0.00  0.00    +0.034 HD
ATOM     49  H   UNL     1     152.462 164.384 185.547  0.00  0.00    +0.062 HD
ATOM     50  H   UNL     1     150.598 165.934 185.654  0.00  0.00    +0.062 HD
ATOM     51  H   UNL     1     151.674 166.273 188.533  0.00  0.00    +0.069 HD
ATOM     52  H   UNL     1     147.171 167.269 188.205  0.00  0.00    +0.074 HD
ATOM     53  H   UNL     1     145.838 167.891 186.083  0.00  0.00    +0.038 HD
ATOM     54  H   UNL     1     148.369 167.588 184.418  0.00  0.00    +0.057 HD
ATOM     55  H   UNL     1     145.563 166.377 184.147  0.00  0.00    +0.059 HD
ATOM     56  H   UNL     1     147.719 166.987 182.047  0.00  0.00    +0.064 HD
ATOM     57  H   UNL     1     147.287 164.532 181.262  0.00  0.00    +0.032 HD
ATOM     58  H   UNL     1     146.801 164.197 182.915  0.00  0.00    +0.032 HD
ATOM     59  H   UNL     1     149.066 164.984 183.716  0.00  0.00    +0.060 HD
ENDROOT
BRANCH   1  60
ATOM     60  C   UNL     1     150.826 162.956 182.287  0.00  0.00    -0.057 C 
ATOM     61  H   UNL     1     151.088 163.153 181.242  0.00  0.00    +0.024 HD
ATOM     62  H   UNL     1     151.139 161.938 182.528  0.00  0.00    +0.024 HD
ATOM     63  H   UNL     1     151.419 163.646 182.898  0.00  0.00    +0.024 HD
ENDBRANCH   1  60
BRANCH  26  64
ATOM     64  C   UNL     1     147.503 169.154 186.368  0.00  0.00    -0.056 C 
ATOM     65  H   UNL     1     147.778 169.283 187.418  0.00  0.00    +0.024 HD
ATOM     66  H   UNL     1     146.774 169.930 186.109  0.00  0.00    +0.024 HD
ATOM     67  H   UNL     1     148.400 169.322 185.762  0.00  0.00    +0.024 HD
ENDBRANCH  26  64
BRANCH  18  68
ATOM     68  C   UNL     1     154.184 167.035 187.045  0.00  0.00    -0.043 C 
ATOM     69  H   UNL     1     154.791 167.656 186.373  0.00  0.00    +0.027 HD
ATOM     70  H   UNL     1     153.300 167.631 187.303  0.00  0.00    +0.027 HD
ATOM     71  H   UNL     1     154.753 166.863 187.966  0.00  0.00    +0.027 HD
ENDBRANCH  18  68
BRANCH   7  72
ATOM     72  C   UNL     1     152.330 160.741 184.686  0.00  0.00    -0.057 C 
ATOM     73  H   UNL     1     153.188 160.405 184.093  0.00  0.00    +0.023 HD
ATOM     74  H   UNL     1     152.450 161.819 184.853  0.00  0.00    +0.023 HD
ATOM     75  H   UNL     1     151.425 160.591 184.093  0.00  0.00    +0.023 HD
ENDBRANCH   7  72
BRANCH  25  76
ATOM     76  C   UNL     1     146.614 165.389 187.274  0.00  0.00    +0.020 C 
ATOM     77  H   UNL     1     146.497 165.057 186.238  0.00  0.00    +0.036 HD
BRANCH  76  78
ATOM     78  C   UNL     1     147.523 164.348 187.965  0.00  0.00    -0.057 C 
ATOM     79  H   UNL     1     148.476 164.235 187.442  0.00  0.00    +0.023 HD
ATOM     80  H   UNL     1     147.737 164.642 189.000  0.00  0.00    +0.023 HD
ATOM     81  H   UNL     1     147.071 163.355 187.992  0.00  0.00    +0.023 HD
ENDBRANCH  76  78
BRANCH  76  82
ATOM     82  C   UNL     1     145.227 165.382 188.000  0.00  0.00    +0.067 C 
ATOM     83  H   UNL     1     144.487 165.744 187.273  0.00  0.00    +0.060 HD
BRANCH  82  84
ATOM     84  C   UNL     1     145.175 166.324 189.248  0.00  0.00    -0.017 C 
ATOM     85  H   UNL     1     146.072 166.953 189.255  0.00  0.00    +0.032 HD
BRANCH  84  86
ATOM     86  C   UNL     1     143.974 167.278 189.130  0.00  0.00    -0.060 C 
ATOM     87  H   UNL     1     144.206 168.117 188.469  0.00  0.00    +0.023 HD
ATOM     88  H   UNL     1     143.713 167.706 190.104  0.00  0.00    +0.023 HD
ATOM     89  H   UNL     1     143.088 166.766 188.739  0.00  0.00    +0.023 HD
ENDBRANCH  84  86
BRANCH  84  90
ATOM     90  C   UNL     1     145.116 165.548 190.585  0.00  0.00    -0.041 C 
ATOM     91  H   UNL     1     144.824 164.508 190.407  0.00  0.00    +0.027 HD
ATOM     92  H   UNL     1     144.339 165.971 191.234  0.00  0.00    +0.027 HD
BRANCH  90  93
ATOM     93  C   UNL     1     146.447 165.534 191.333  0.00  0.00    +0.007 C 
ATOM     94  H   UNL     1     146.880 164.530 191.344  0.00  0.00    +0.034 HD
ATOM     95  H   UNL     1     147.182 166.188 190.850  0.00  0.00    +0.034 HD
BRANCH  93  96
ATOM     96  C   UNL     1     146.276 166.036 192.753  0.00  0.00    +0.139 C 
ATOM     97  O   UNL     1     145.592 167.038 192.978  0.00  0.00    -0.297 OA
BRANCH  96  98
ATOM     98  C   UNL     1     146.946 165.246 193.874  0.00  0.00    +0.041 C 
ATOM     99  H   UNL     1     147.092 164.225 193.498  0.00  0.00    +0.040 HD
BRANCH  98 100
ATOM    100  C   UNL     1     145.993 165.106 195.070  0.00  0.00    -0.053 C 
ATOM    101  H   UNL     1     146.533 165.170 196.022  0.00  0.00    +0.024 HD
ATOM    102  H   UNL     1     145.490 164.133 195.046  0.00  0.00    +0.024 HD
ATOM    103  H   UNL     1     145.215 165.875 195.063  0.00  0.00    +0.024 HD
ENDBRANCH  98 100
BRANCH  98 104
ATOM    104  C   UNL     1     148.337 165.806 194.257  0.00  0.00    +0.071 C 
ATOM    105  H   UNL     1     149.066 164.990 194.145  0.00  0.00    +0.061 HD
BRANCH 104 106
ATOM    106  C   UNL     1     148.792 167.023 193.410  0.00  0.00    -0.006 C 
ATOM    107  H   UNL     1     148.198 167.100 192.490  0.00  0.00    +0.033 HD
ATOM    108  H   UNL     1     148.597 167.956 193.951  0.00  0.00    +0.033 HD
BRANCH 106 109
ATOM    109  C   UNL     1     150.264 166.978 193.115  0.00  0.00    -0.067 C 
ATOM    110  C   UNL     1     150.860 165.980 192.450  0.00  0.00    -0.005 C 
ATOM    111  H   UNL     1     150.838 167.822 193.487  0.00  0.00    +0.059 HD
ATOM    112  H   UNL     1     150.243 165.168 192.067  0.00  0.00    +0.078 HD
BRANCH 110 113
ATOM    113  N   UNL     1     152.214 165.846 192.193  0.00  0.00    -0.284 N 
ATOM    114  C   UNL     1     152.765 165.078 191.170  0.00  0.00    +0.206 C 
ATOM    115  O   UNL     1     152.196 164.461 190.278  0.00  0.00    -0.279 OA
ATOM    116  H   UNL     1     153.869 165.082 191.206  0.00  0.00    +0.126 HD
BRANCH 113 117
ATOM    117  C   UNL     1     153.108 166.675 192.993  0.00  0.00    +0.007 C 
ATOM    118  H   UNL     1     153.806 167.187 192.322  0.00  0.00    +0.043 HD
ATOM    119  H   UNL     1     152.524 167.408 193.556  0.00  0.00    +0.043 HD
ATOM    120  H   UNL     1     153.691 166.074 193.698  0.00  0.00    +0.043 HD
ENDBRANCH 113 117
ENDBRANCH 110 113
ENDBRANCH 106 109
ENDBRANCH 104 106
BRANCH 104 121
ATOM    121  O   UNL     1     148.299 166.182 195.646  0.00  0.00    -0.379 OA
BRANCH 121 122
ATOM    122  C   UNL     1     149.406 165.692 196.394  0.00  0.00    +0.037 C 
ATOM    123  H   UNL     1     149.525 164.619 196.221  0.00  0.00    +0.052 HD
ATOM    124  H   UNL     1     150.335 166.211 196.135  0.00  0.00    +0.052 HD
ATOM    125  H   UNL     1     149.197 165.850 197.455  0.00  0.00    +0.052 HD
ENDBRANCH 121 122
ENDBRANCH 104 121
ENDBRANCH  98 104
ENDBRANCH  96  98
ENDBRANCH  93  96
ENDBRANCH  90  93
ENDBRANCH  84  90
ENDBRANCH  82  84
BRANCH  82 126
ATOM    126  O   UNL     1     144.868 164.071 188.432  0.00  0.00    -0.379 OA
BRANCH 126 127
ATOM    127  C   UNL     1     143.774 163.518 187.709  0.00  0.00    +0.037 C 
ATOM    128  H   UNL     1     144.132 163.229 186.718  0.00  0.00    +0.052 HD
ATOM    129  H   UNL     1     143.382 162.632 188.211  0.00  0.00    +0.052 HD
ATOM    130  H   UNL     1     142.980 164.262 187.588  0.00  0.00    +0.052 HD
ENDBRANCH 126 127
ENDBRANCH  82 126
ENDBRANCH  76  82
ENDBRANCH  25  76
BRANCH  31 131
ATOM    131  O   UNL     1     149.695 165.476 181.789  0.00  0.00    -0.379 OA
BRANCH 131 132
ATOM    132  C   UNL     1     149.363 165.297 180.418  0.00  0.00    +0.037 C 
ATOM    133  H   UNL     1     149.894 166.010 179.782  0.00  0.00    +0.052 HD
ATOM    134  H   UNL     1     149.656 164.284 180.123  0.00  0.00    +0.052 HD
ATOM    135  H   UNL     1     148.284 165.399 180.270  0.00  0.00    +0.052 HD
ENDBRANCH 131 132
ENDBRANCH  31 131
BRANCH  29 136
ATOM    136  O   UNL     1     145.761 166.426 181.643  0.00  0.00    -0.376 OA
BRANCH 136 137
ATOM    137  C   UNL     1     145.992 167.113 180.418  0.00  0.00    +0.037 C 
ATOM    138  H   UNL     1     147.042 167.409 180.329  0.00  0.00    +0.052 HD
ATOM    139  H   UNL     1     145.372 168.013 180.408  0.00  0.00    +0.052 HD
ATOM    140  H   UNL     1     145.705 166.482 179.568  0.00  0.00    +0.052 HD
ENDBRANCH 136 137
ENDBRANCH  29 136
BRANCH  16 141
ATOM    141  O   UNL     1     156.771 165.306 187.647  0.00  0.00    -0.379 OA
BRANCH 141 142
ATOM    142  C   UNL     1     157.718 165.811 186.713  0.00  0.00    +0.037 C 
ATOM    143  H   UNL     1     158.641 165.225 186.735  0.00  0.00    +0.052 HD
ATOM    144  H   UNL     1     157.288 165.726 185.713  0.00  0.00    +0.052 HD
ATOM    145  H   UNL     1     157.936 166.866 186.904  0.00  0.00    +0.052 HD
ENDBRANCH 141 142
ENDBRANCH  16 141
BRANCH   6 146
ATOM    146  O   UNL     1     150.748 158.921 187.622  0.00  0.00    -0.379 OA
BRANCH 146 147
ATOM    147  C   UNL     1     149.934 159.372 188.698  0.00  0.00    +0.037 C 
ATOM    148  H   UNL     1     150.262 158.954 189.653  0.00  0.00    +0.052 HD
ATOM    149  H   UNL     1     150.012 160.460 188.750  0.00  0.00    +0.052 HD
ATOM    150  H   UNL     1     148.886 159.110 188.517  0.00  0.00    +0.052 HD
ENDBRANCH 146 147
ENDBRANCH   6 146
BRANCH   4 151
ATOM    151  O   UNL     1     148.032 160.468 185.710  0.00  0.00    -0.376 OA
BRANCH 151 152
ATOM    152  C   UNL     1     146.816 160.375 186.446  0.00  0.00    +0.037 C 
ATOM    153  H   UNL     1     146.997 160.547 187.513  0.00  0.00    +0.052 HD
ATOM    154  H   UNL     1     146.137 161.152 186.083  0.00  0.00    +0.052 HD
ATOM    155  H   UNL     1     146.339 159.404 186.294  0.00  0.00    +0.052 HD
ENDBRANCH 151 152
ENDBRANCH   4 151
TORSDOF 33
ENDMDL
MODEL 5
REMARK VINA RESULT:      -4.8      1.781      2.317
REMARK  Name = Reidispongiolide A_conf2
REMARK  33 active torsions:
REMARK  status: ('A' for Active; 'I' for Inactive)
REMARK    1  A    between atoms: C_1  and  C_2
REMARK    2  A    between atoms: C_5  and  O_67
REMARK    3  A    between atoms: C_7  and  O_65
REMARK    4  A    between atoms: C_8  and  C_64
REMARK    5  A    between atoms: C_17  and  O_62
REMARK    6  A    between atoms: C_19  and  C_61
REMARK    7  A    between atoms: C_26  and  C_38
REMARK    8  A    between atoms: C_27  and  C_37
REMARK    9  A    between atoms: C_30  and  O_35
REMARK   10  A    between atoms: C_32  and  O_33
REMARK   11  A    between atoms: O_33  and  C_34
REMARK   12  A    between atoms: O_35  and  C_36
REMARK   13  A    between atoms: C_38  and  C_39
REMARK   14  A    between atoms: C_38  and  C_40
REMARK   15  A    between atoms: C_40  and  C_41
REMARK   16  A    between atoms: C_40  and  O_59
REMARK   17  A    between atoms: C_41  and  C_42
REMARK   18  A    between atoms: C_41  and  C_43
REMARK   19  A    between atoms: C_43  and  C_44
REMARK   20  A    between atoms: C_44  and  C_45
REMARK   21  A    between atoms: C_45  and  C_47
REMARK   22  A    between atoms: C_47  and  C_48
REMARK   23  A    between atoms: C_47  and  C_49
REMARK   24  A    between atoms: C_49  and  C_50
REMARK   25  A    between atoms: C_49  and  O_57
REMARK   26  A    between atoms: C_50  and  C_51
REMARK   27  A    between atoms: C_52  and  N_53
REMARK   28  A    between atoms: N_53  and  C_54
REMARK   29  A    between atoms: O_57  and  C_58
REMARK   30  A    between atoms: O_59  and  C_60
REMARK   31  A    between atoms: O_62  and  C_63
REMARK   32  A    between atoms: O_65  and  C_66
REMARK   33  A    between atoms: O_67  and  C_68
REMARK                            x       y       z     vdW  Elec       q    Type
REMARK                         _______ _______ _______ _____ _____    ______ ____
ROOT
ATOM      1  C   UNL     1     145.564 165.813 184.841  0.00  0.00    +0.001 C 
ATOM      2  C   UNL     1     145.297 164.688 185.827  0.00  0.00    -0.080 C 
ATOM      3  C   UNL     1     146.157 164.278 186.780  0.00  0.00    -0.059 C 
ATOM      4  C   UNL     1     145.963 163.165 187.781  0.00  0.00    +0.079 C 
ATOM      5  C   UNL     1     147.223 162.276 187.904  0.00  0.00    +0.004 C 
ATOM      6  C   UNL     1     147.358 161.141 186.869  0.00  0.00    +0.067 C 
ATOM      7  C   UNL     1     148.546 161.228 185.866  0.00  0.00    +0.020 C 
ATOM      8  C   UNL     1     150.016 161.178 186.378  0.00  0.00    +0.112 C 
ATOM      9  C   UNL     1     150.601 162.482 186.936  0.00  0.00    +0.006 C 
ATOM     10  C   UNL     1     152.013 162.270 187.396  0.00  0.00    -0.057 C 
ATOM     11  C   UNL     1     152.399 161.027 187.744  0.00  0.00    +0.022 C 
ATOM     12  C   UNL     1     151.464 159.882 187.785  0.00  0.00    +0.332 C 
ATOM     13  O   UNL     1     151.800 158.824 188.295  0.00  0.00    -0.246 OA
ATOM     14  O   UNL     1     150.214 160.095 187.298  0.00  0.00    -0.458 OA
ATOM     15  C   UNL     1     152.921 163.465 187.615  0.00  0.00    -0.004 C 
ATOM     16  C   UNL     1     153.367 164.291 186.382  0.00  0.00    +0.066 C 
ATOM     17  C   UNL     1     152.352 165.360 185.890  0.00  0.00    -0.005 C 
ATOM     18  C   UNL     1     151.664 166.192 186.965  0.00  0.00    -0.070 C 
ATOM     19  C   UNL     1     150.335 166.082 187.149  0.00  0.00    -0.062 C 
ATOM     20  C   UNL     1     149.497 166.722 188.134  0.00  0.00    -0.055 C 
ATOM     21  C   UNL     1     149.728 166.722 189.460  0.00  0.00    +0.023 C 
ATOM     22  C   UNL     1     148.761 167.245 190.455  0.00  0.00    +0.332 C 
ATOM     23  O   UNL     1     149.025 167.354 191.640  0.00  0.00    -0.246 OA
ATOM     24  O   UNL     1     147.571 167.491 189.867  0.00  0.00    -0.457 OA
ATOM     25  C   UNL     1     146.432 167.869 190.695  0.00  0.00    +0.114 C 
ATOM     26  C   UNL     1     145.930 169.228 190.122  0.00  0.00    +0.012 C 
ATOM     27  C   UNL     1     145.717 169.221 188.618  0.00  0.00    -0.079 C 
ATOM     28  C   UNL     1     144.529 169.025 188.024  0.00  0.00    -0.059 C 
ATOM     29  C   UNL     1     144.277 169.121 186.544  0.00  0.00    +0.079 C 
ATOM     30  C   UNL     1     144.261 167.745 185.866  0.00  0.00    +0.004 C 
ATOM     31  C   UNL     1     145.667 167.212 185.525  0.00  0.00    +0.067 C 
ATOM     32  H   UNL     1     144.707 165.840 184.152  0.00  0.00    +0.037 HD
ATOM     33  H   UNL     1     144.337 164.183 185.720  0.00  0.00    +0.057 HD
ATOM     34  H   UNL     1     147.092 164.820 186.886  0.00  0.00    +0.059 HD
ATOM     35  H   UNL     1     145.820 163.674 188.740  0.00  0.00    +0.064 HD
ATOM     36  H   UNL     1     148.095 162.927 187.908  0.00  0.00    +0.032 HD
ATOM     37  H   UNL     1     147.190 161.830 188.911  0.00  0.00    +0.032 HD
ATOM     38  H   UNL     1     146.431 161.096 186.280  0.00  0.00    +0.060 HD
ATOM     39  H   UNL     1     148.459 160.306 185.270  0.00  0.00    +0.036 HD
ATOM     40  H   UNL     1     150.615 160.922 185.486  0.00  0.00    +0.074 HD
ATOM     41  H   UNL     1     150.047 162.858 187.797  0.00  0.00    +0.035 HD
ATOM     42  H   UNL     1     150.576 163.232 186.145  0.00  0.00    +0.035 HD
ATOM     43  H   UNL     1     153.386 160.812 188.138  0.00  0.00    +0.069 HD
ATOM     44  H   UNL     1     153.835 163.110 188.112  0.00  0.00    +0.034 HD
ATOM     45  H   UNL     1     152.458 164.114 188.368  0.00  0.00    +0.034 HD
ATOM     46  H   UNL     1     153.565 163.592 185.555  0.00  0.00    +0.060 HD
ATOM     47  H   UNL     1     151.598 164.858 185.270  0.00  0.00    +0.034 HD
ATOM     48  H   UNL     1     152.845 166.064 185.204  0.00  0.00    +0.034 HD
ATOM     49  H   UNL     1     149.768 165.437 186.477  0.00  0.00    +0.062 HD
ATOM     50  H   UNL     1     148.564 167.125 187.739  0.00  0.00    +0.062 HD
ATOM     51  H   UNL     1     150.628 166.296 189.888  0.00  0.00    +0.069 HD
ATOM     52  H   UNL     1     146.756 168.022 191.734  0.00  0.00    +0.074 HD
ATOM     53  H   UNL     1     144.993 169.526 190.595  0.00  0.00    +0.038 HD
ATOM     54  H   UNL     1     146.593 169.422 188.006  0.00  0.00    +0.057 HD
ATOM     55  H   UNL     1     143.651 168.820 188.640  0.00  0.00    +0.059 HD
ATOM     56  H   UNL     1     145.017 169.770 186.057  0.00  0.00    +0.064 HD
ATOM     57  H   UNL     1     143.678 167.825 184.938  0.00  0.00    +0.032 HD
ATOM     58  H   UNL     1     143.728 167.026 186.499  0.00  0.00    +0.032 HD
ATOM     59  H   UNL     1     146.253 167.137 186.449  0.00  0.00    +0.060 HD
ENDROOT
BRANCH   1  60
ATOM     60  C   UNL     1     146.770 165.472 183.958  0.00  0.00    -0.057 C 
ATOM     61  H   UNL     1     147.035 164.413 184.051  0.00  0.00    +0.024 HD
ATOM     62  H   UNL     1     147.647 166.065 184.222  0.00  0.00    +0.024 HD
ATOM     63  H   UNL     1     146.547 165.649 182.900  0.00  0.00    +0.024 HD
ENDBRANCH   1  60
BRANCH  26  64
ATOM     64  C   UNL     1     146.931 170.345 190.464  0.00  0.00    -0.056 C 
ATOM     65  H   UNL     1     147.304 170.255 191.488  0.00  0.00    +0.024 HD
ATOM     66  H   UNL     1     146.461 171.329 190.358  0.00  0.00    +0.024 HD
ATOM     67  H   UNL     1     147.793 170.312 189.788  0.00  0.00    +0.024 HD
ENDBRANCH  26  64
BRANCH  18  68
ATOM     68  C   UNL     1     152.565 167.124 187.730  0.00  0.00    -0.043 C 
ATOM     69  H   UNL     1     153.327 166.552 188.276  0.00  0.00    +0.027 HD
ATOM     70  H   UNL     1     153.108 167.823 187.083  0.00  0.00    +0.027 HD
ATOM     71  H   UNL     1     151.989 167.713 188.454  0.00  0.00    +0.027 HD
ENDBRANCH  18  68
BRANCH   7  72
ATOM     72  C   UNL     1     148.343 162.370 184.868  0.00  0.00    -0.057 C 
ATOM     73  H   UNL     1     148.324 161.985 183.841  0.00  0.00    +0.023 HD
ATOM     74  H   UNL     1     149.166 163.094 184.930  0.00  0.00    +0.023 HD
ATOM     75  H   UNL     1     147.409 162.907 185.049  0.00  0.00    +0.023 HD
ENDBRANCH   7  72
BRANCH  25  76
ATOM     76  C   UNL     1     145.413 166.680 190.682  0.00  0.00    +0.020 C 
ATOM     77  H   UNL     1     144.621 166.939 189.972  0.00  0.00    +0.036 HD
BRANCH  76  78
ATOM     78  C   UNL     1     146.101 165.414 190.123  0.00  0.00    -0.057 C 
ATOM     79  H   UNL     1     147.176 165.422 190.316  0.00  0.00    +0.023 HD
ATOM     80  H   UNL     1     145.681 164.509 190.580  0.00  0.00    +0.023 HD
ATOM     81  H   UNL     1     145.984 165.321 189.042  0.00  0.00    +0.023 HD
ENDBRANCH  76  78
BRANCH  76  82
ATOM     82  C   UNL     1     144.791 166.322 192.073  0.00  0.00    +0.067 C 
ATOM     83  H   UNL     1     144.976 165.251 192.237  0.00  0.00    +0.060 HD
BRANCH  82  84
ATOM     84  C   UNL     1     143.245 166.559 192.142  0.00  0.00    -0.017 C 
ATOM     85  H   UNL     1     142.733 165.608 191.954  0.00  0.00    +0.032 HD
BRANCH  84  86
ATOM     86  C   UNL     1     142.848 166.995 193.562  0.00  0.00    -0.060 C 
ATOM     87  H   UNL     1     143.391 167.897 193.859  0.00  0.00    +0.023 HD
ATOM     88  H   UNL     1     143.096 166.222 194.296  0.00  0.00    +0.023 HD
ATOM     89  H   UNL     1     141.774 167.200 193.637  0.00  0.00    +0.023 HD
ENDBRANCH  84  86
BRANCH  84  90
ATOM     90  C   UNL     1     142.749 167.592 191.103  0.00  0.00    -0.041 C 
ATOM     91  H   UNL     1     141.765 167.301 190.719  0.00  0.00    +0.027 HD
ATOM     92  H   UNL     1     143.418 167.605 190.234  0.00  0.00    +0.027 HD
BRANCH  90  93
ATOM     93  C   UNL     1     142.627 169.004 191.668  0.00  0.00    +0.007 C 
ATOM     94  H   UNL     1     142.455 168.980 192.749  0.00  0.00    +0.034 HD
ATOM     95  H   UNL     1     143.547 169.578 191.510  0.00  0.00    +0.034 HD
BRANCH  93  96
ATOM     96  C   UNL     1     141.508 169.767 190.986  0.00  0.00    +0.139 C 
ATOM     97  O   UNL     1     140.492 169.174 190.614  0.00  0.00    -0.297 OA
BRANCH  96  98
ATOM     98  C   UNL     1     141.676 171.274 190.812  0.00  0.00    +0.041 C 
ATOM     99  H   UNL     1     141.652 171.714 191.817  0.00  0.00    +0.040 HD
BRANCH  98 100
ATOM    100  C   UNL     1     140.463 171.863 190.080  0.00  0.00    -0.053 C 
ATOM    101  H   UNL     1     139.674 172.155 190.783  0.00  0.00    +0.024 HD
ATOM    102  H   UNL     1     140.032 171.123 189.396  0.00  0.00    +0.024 HD
ATOM    103  H   UNL     1     140.733 172.740 189.483  0.00  0.00    +0.024 HD
ENDBRANCH  98 100
BRANCH  98 104
ATOM    104  C   UNL     1     143.030 171.658 190.168  0.00  0.00    +0.071 C 
ATOM    105  H   UNL     1     143.530 170.727 189.864  0.00  0.00    +0.061 HD
BRANCH 104 106
ATOM    106  C   UNL     1     142.912 172.603 188.944  0.00  0.00    -0.006 C 
ATOM    107  H   UNL     1     142.044 172.335 188.328  0.00  0.00    +0.033 HD
ATOM    108  H   UNL     1     142.717 173.630 189.274  0.00  0.00    +0.033 HD
BRANCH 106 109
ATOM    109  C   UNL     1     144.177 172.628 188.134  0.00  0.00    -0.067 C 
ATOM    110  C   UNL     1     144.407 173.496 187.140  0.00  0.00    -0.005 C 
ATOM    111  H   UNL     1     144.915 171.878 188.402  0.00  0.00    +0.059 HD
ATOM    112  H   UNL     1     143.653 174.252 186.924  0.00  0.00    +0.078 HD
BRANCH 110 113
ATOM    113  N   UNL     1     145.520 173.540 186.318  0.00  0.00    -0.284 N 
ATOM    114  C   UNL     1     146.156 174.703 185.888  0.00  0.00    +0.206 C 
ATOM    115  O   UNL     1     145.926 175.865 186.198  0.00  0.00    -0.279 OA
ATOM    116  H   UNL     1     146.984 174.481 185.192  0.00  0.00    +0.126 HD
BRANCH 113 117
ATOM    117  C   UNL     1     146.129 172.257 185.986  0.00  0.00    +0.007 C 
ATOM    118  H   UNL     1     145.707 171.488 186.641  0.00  0.00    +0.043 HD
ATOM    119  H   UNL     1     145.921 172.012 184.940  0.00  0.00    +0.043 HD
ATOM    120  H   UNL     1     147.213 172.275 186.134  0.00  0.00    +0.043 HD
ENDBRANCH 113 117
ENDBRANCH 110 113
ENDBRANCH 106 109
ENDBRANCH 104 106
BRANCH 104 121
ATOM    121  O   UNL     1     143.840 172.289 191.178  0.00  0.00    -0.379 OA
BRANCH 121 122
ATOM    122  C   UNL     1     143.302 173.522 191.644  0.00  0.00    +0.037 C 
ATOM    123  H   UNL     1     142.265 173.622 191.312  0.00  0.00    +0.052 HD
ATOM    124  H   UNL     1     143.348 173.600 192.736  0.00  0.00    +0.052 HD
ATOM    125  H   UNL     1     143.886 174.334 191.207  0.00  0.00    +0.052 HD
ENDBRANCH 121 122
ENDBRANCH 104 121
ENDBRANCH  98 104
ENDBRANCH  96  98
ENDBRANCH  93  96
ENDBRANCH  90  93
ENDBRANCH  84  90
ENDBRANCH  82  84
BRANCH  82 126
ATOM    126  O   UNL     1     145.391 167.075 193.126  0.00  0.00    -0.379 OA
BRANCH 126 127
ATOM    127  C   UNL     1     146.352 166.336 193.871  0.00  0.00    +0.037 C 
ATOM    128  H   UNL     1     147.285 166.319 193.302  0.00  0.00    +0.052 HD
ATOM    129  H   UNL     1     146.542 166.806 194.838  0.00  0.00    +0.052 HD
ATOM    130  H   UNL     1     146.015 165.305 194.016  0.00  0.00    +0.052 HD
ENDBRANCH 126 127
ENDBRANCH  82 126
ENDBRANCH  76  82
ENDBRANCH  25  76
BRANCH  31 131
ATOM    131  O   UNL     1     146.278 168.152 184.627  0.00  0.00    -0.379 OA
BRANCH 131 132
ATOM    132  C   UNL     1     147.489 168.708 185.127  0.00  0.00    +0.037 C 
ATOM    133  H   UNL     1     147.627 168.478 186.187  0.00  0.00    +0.052 HD
ATOM    134  H   UNL     1     148.322 168.274 184.566  0.00  0.00    +0.052 HD
ATOM    135  H   UNL     1     147.502 169.791 184.977  0.00  0.00    +0.052 HD
ENDBRANCH 131 132
ENDBRANCH  31 131
BRANCH  29 136
ATOM    136  O   UNL     1     142.968 169.687 186.383  0.00  0.00    -0.376 OA
BRANCH 136 137
ATOM    137  C   UNL     1     142.059 169.247 187.385  0.00  0.00    +0.037 C 
ATOM    138  H   UNL     1     141.987 168.154 187.392  0.00  0.00    +0.052 HD
ATOM    139  H   UNL     1     141.073 169.661 187.160  0.00  0.00    +0.052 HD
ATOM    140  H   UNL     1     142.373 169.609 188.371  0.00  0.00    +0.052 HD
ENDBRANCH 136 137
ENDBRANCH  29 136
BRANCH  16 141
ATOM    141  O   UNL     1     154.614 164.918 186.741  0.00  0.00    -0.379 OA
BRANCH 141 142
ATOM    142  C   UNL     1     155.195 164.414 187.939  0.00  0.00    +0.037 C 
ATOM    143  H   UNL     1     155.238 165.190 188.709  0.00  0.00    +0.052 HD
ATOM    144  H   UNL     1     154.562 163.605 188.308  0.00  0.00    +0.052 HD
ATOM    145  H   UNL     1     156.194 164.012 187.753  0.00  0.00    +0.052 HD
ENDBRANCH 141 142
ENDBRANCH  16 141
BRANCH   6 146
ATOM    146  O   UNL     1     147.450 159.926 187.636  0.00  0.00    -0.379 OA
BRANCH 146 147
ATOM    147  C   UNL     1     147.111 160.083 189.008  0.00  0.00    +0.037 C 
ATOM    148  H   UNL     1     147.777 160.791 189.509  0.00  0.00    +0.052 HD
ATOM    149  H   UNL     1     146.090 160.467 189.065  0.00  0.00    +0.052 HD
ATOM    150  H   UNL     1     147.143 159.115 189.520  0.00  0.00    +0.052 HD
ENDBRANCH 146 147
ENDBRANCH   6 146
BRANCH   4 151
ATOM    151  O   UNL     1     144.777 162.428 187.490  0.00  0.00    -0.376 OA
BRANCH 151 152
ATOM    152  C   UNL     1     143.985 162.165 188.644  0.00  0.00    +0.037 C 
ATOM    153  H   UNL     1     144.607 161.790 189.463  0.00  0.00    +0.052 HD
ATOM    154  H   UNL     1     143.526 163.105 188.964  0.00  0.00    +0.052 HD
ATOM    155  H   UNL     1     143.186 161.455 188.417  0.00  0.00    +0.052 HD
ENDBRANCH 151 152
ENDBRANCH   4 151
TORSDOF 33
ENDMDL
MODEL 6
REMARK VINA RESULT:      -4.8      2.602      4.916
REMARK  Name = Reidispongiolide A_conf2
REMARK  33 active torsions:
REMARK  status: ('A' for Active; 'I' for Inactive)
REMARK    1  A    between atoms: C_1  and  C_2
REMARK    2  A    between atoms: C_5  and  O_67
REMARK    3  A    between atoms: C_7  and  O_65
REMARK    4  A    between atoms: C_8  and  C_64
REMARK    5  A    between atoms: C_17  and  O_62
REMARK    6  A    between atoms: C_19  and  C_61
REMARK    7  A    between atoms: C_26  and  C_38
REMARK    8  A    between atoms: C_27  and  C_37
REMARK    9  A    between atoms: C_30  and  O_35
REMARK   10  A    between atoms: C_32  and  O_33
REMARK   11  A    between atoms: O_33  and  C_34
REMARK   12  A    between atoms: O_35  and  C_36
REMARK   13  A    between atoms: C_38  and  C_39
REMARK   14  A    between atoms: C_38  and  C_40
REMARK   15  A    between atoms: C_40  and  C_41
REMARK   16  A    between atoms: C_40  and  O_59
REMARK   17  A    between atoms: C_41  and  C_42
REMARK   18  A    between atoms: C_41  and  C_43
REMARK   19  A    between atoms: C_43  and  C_44
REMARK   20  A    between atoms: C_44  and  C_45
REMARK   21  A    between atoms: C_45  and  C_47
REMARK   22  A    between atoms: C_47  and  C_48
REMARK   23  A    between atoms: C_47  and  C_49
REMARK   24  A    between atoms: C_49  and  C_50
REMARK   25  A    between atoms: C_49  and  O_57
REMARK   26  A    between atoms: C_50  and  C_51
REMARK   27  A    between atoms: C_52  and  N_53
REMARK   28  A    between atoms: N_53  and  C_54
REMARK   29  A    between atoms: O_57  and  C_58
REMARK   30  A    between atoms: O_59  and  C_60
REMARK   31  A    between atoms: O_62  and  C_63
REMARK   32  A    between atoms: O_65  and  C_66
REMARK   33  A    between atoms: O_67  and  C_68
REMARK                            x       y       z     vdW  Elec       q    Type
REMARK                         _______ _______ _______ _____ _____    ______ ____
ROOT
ATOM      1  C   UNL     1     145.845 165.679 184.449  0.00  0.00    +0.001 C 
ATOM      2  C   UNL     1     145.558 164.528 185.398  0.00  0.00    -0.080 C 
ATOM      3  C   UNL     1     146.365 164.139 186.404  0.00  0.00    -0.059 C 
ATOM      4  C   UNL     1     146.149 163.003 187.373  0.00  0.00    +0.079 C 
ATOM      5  C   UNL     1     147.435 162.165 187.574  0.00  0.00    +0.004 C 
ATOM      6  C   UNL     1     147.691 161.054 186.536  0.00  0.00    +0.067 C 
ATOM      7  C   UNL     1     148.942 161.208 185.621  0.00  0.00    +0.020 C 
ATOM      8  C   UNL     1     150.373 161.211 186.235  0.00  0.00    +0.112 C 
ATOM      9  C   UNL     1     150.860 162.529 186.851  0.00  0.00    +0.006 C 
ATOM     10  C   UNL     1     152.245 162.368 187.407  0.00  0.00    -0.057 C 
ATOM     11  C   UNL     1     152.658 161.138 187.765  0.00  0.00    +0.022 C 
ATOM     12  C   UNL     1     151.772 159.954 187.724  0.00  0.00    +0.332 C 
ATOM     13  O   UNL     1     152.118 158.903 188.243  0.00  0.00    -0.246 OA
ATOM     14  O   UNL     1     150.552 160.122 187.152  0.00  0.00    -0.458 OA
ATOM     15  C   UNL     1     153.082 163.597 187.705  0.00  0.00    -0.004 C 
ATOM     16  C   UNL     1     153.578 164.461 186.518  0.00  0.00    +0.066 C 
ATOM     17  C   UNL     1     152.556 165.494 185.970  0.00  0.00    -0.005 C 
ATOM     18  C   UNL     1     151.759 166.279 187.005  0.00  0.00    -0.070 C 
ATOM     19  C   UNL     1     150.426 166.110 187.093  0.00  0.00    -0.062 C 
ATOM     20  C   UNL     1     149.494 166.698 188.024  0.00  0.00    -0.055 C 
ATOM     21  C   UNL     1     149.631 166.687 189.363  0.00  0.00    +0.023 C 
ATOM     22  C   UNL     1     148.575 167.152 190.293  0.00  0.00    +0.332 C 
ATOM     23  O   UNL     1     148.750 167.253 191.496  0.00  0.00    -0.246 OA
ATOM     24  O   UNL     1     147.420 167.358 189.626  0.00  0.00    -0.457 OA
ATOM     25  C   UNL     1     146.210 167.674 190.377  0.00  0.00    +0.114 C 
ATOM     26  C   UNL     1     145.691 169.020 189.787  0.00  0.00    +0.012 C 
ATOM     27  C   UNL     1     145.585 169.029 188.272  0.00  0.00    -0.079 C 
ATOM     28  C   UNL     1     144.451 168.792 187.593  0.00  0.00    -0.059 C 
ATOM     29  C   UNL     1     144.300 168.902 186.100  0.00  0.00    +0.079 C 
ATOM     30  C   UNL     1     144.391 167.538 185.404  0.00  0.00    +0.004 C 
ATOM     31  C   UNL     1     145.839 167.070 185.156  0.00  0.00    +0.067 C 
ATOM     32  H   UNL     1     145.038 165.682 183.701  0.00  0.00    +0.037 HD
ATOM     33  H   UNL     1     144.631 163.986 185.217  0.00  0.00    +0.057 HD
ATOM     34  H   UNL     1     147.267 164.718 186.584  0.00  0.00    +0.059 HD
ATOM     35  H   UNL     1     145.918 163.489 188.327  0.00  0.00    +0.064 HD
ATOM     36  H   UNL     1     148.276 162.852 187.648  0.00  0.00    +0.032 HD
ATOM     37  H   UNL     1     147.350 161.702 188.570  0.00  0.00    +0.032 HD
ATOM     38  H   UNL     1     146.811 160.980 185.882  0.00  0.00    +0.060 HD
ATOM     39  H   UNL     1     148.937 160.292 185.008  0.00  0.00    +0.036 HD
ATOM     40  H   UNL     1     151.044 160.995 185.385  0.00  0.00    +0.074 HD
ATOM     41  H   UNL     1     150.232 162.867 187.675  0.00  0.00    +0.035 HD
ATOM     42  H   UNL     1     150.859 163.290 186.070  0.00  0.00    +0.035 HD
ATOM     43  H   UNL     1     153.623 160.958 188.225  0.00  0.00    +0.069 HD
ATOM     44  H   UNL     1     153.974 163.272 188.261  0.00  0.00    +0.034 HD
ATOM     45  H   UNL     1     152.540 164.213 188.433  0.00  0.00    +0.034 HD
ATOM     46  H   UNL     1     153.864 163.785 185.699  0.00  0.00    +0.060 HD
ATOM     47  H   UNL     1     151.869 164.971 185.292  0.00  0.00    +0.034 HD
ATOM     48  H   UNL     1     153.065 166.229 185.331  0.00  0.00    +0.034 HD
ATOM     49  H   UNL     1     149.936 165.453 186.374  0.00  0.00    +0.062 HD
ATOM     50  H   UNL     1     148.575 167.069 187.569  0.00  0.00    +0.062 HD
ATOM     51  H   UNL     1     150.516 166.292 189.848  0.00  0.00    +0.069 HD
ATOM     52  H   UNL     1     146.453 167.824 191.437  0.00  0.00    +0.074 HD
ATOM     53  H   UNL     1     144.712 169.270 190.196  0.00  0.00    +0.038 HD
ATOM     54  H   UNL     1     146.493 169.276 187.727  0.00  0.00    +0.057 HD
ATOM     55  H   UNL     1     143.543 168.541 188.142  0.00  0.00    +0.059 HD
ATOM     56  H   UNL     1     145.044 169.590 185.676  0.00  0.00    +0.064 HD
ATOM     57  H   UNL     1     143.872 167.609 184.438  0.00  0.00    +0.032 HD
ATOM     58  H   UNL     1     143.847 166.788 185.988  0.00  0.00    +0.032 HD
ATOM     59  H   UNL     1     146.361 167.005 186.119  0.00  0.00    +0.060 HD
ENDROOT
BRANCH   1  60
ATOM     60  C   UNL     1     147.123 165.404 183.648  0.00  0.00    -0.057 C 
ATOM     61  H   UNL     1     147.177 164.351 183.349  0.00  0.00    +0.024 HD
ATOM     62  H   UNL     1     148.021 165.638 184.224  0.00  0.00    +0.024 HD
ATOM     63  H   UNL     1     147.148 165.996 182.727  0.00  0.00    +0.024 HD
ENDBRANCH   1  60
BRANCH  26  64
ATOM     64  C   UNL     1     146.617 170.172 190.214  0.00  0.00    -0.056 C 
ATOM     65  H   UNL     1     147.234 170.525 189.383  0.00  0.00    +0.024 HD
ATOM     66  H   UNL     1     147.286 169.850 191.020  0.00  0.00    +0.024 HD
ATOM     67  H   UNL     1     146.033 171.022 190.585  0.00  0.00    +0.024 HD
ENDBRANCH  26  64
BRANCH  18  68
ATOM     68  C   UNL     1     152.562 167.235 187.844  0.00  0.00    -0.043 C 
ATOM     69  H   UNL     1     152.781 166.789 188.823  0.00  0.00    +0.027 HD
ATOM     70  H   UNL     1     153.531 167.490 187.397  0.00  0.00    +0.027 HD
ATOM     71  H   UNL     1     152.011 168.169 188.005  0.00  0.00    +0.027 HD
ENDBRANCH  18  68
BRANCH   7  72
ATOM     72  C   UNL     1     148.761 162.356 184.626  0.00  0.00    -0.057 C 
ATOM     73  H   UNL     1     149.726 162.646 184.194  0.00  0.00    +0.023 HD
ATOM     74  H   UNL     1     148.346 163.242 185.124  0.00  0.00    +0.023 HD
ATOM     75  H   UNL     1     148.088 162.084 183.810  0.00  0.00    +0.023 HD
ENDBRANCH   7  72
BRANCH  25  76
ATOM     76  C   UNL     1     145.247 166.444 190.275  0.00  0.00    +0.020 C 
ATOM     77  H   UNL     1     144.865 166.414 189.250  0.00  0.00    +0.036 HD
BRANCH  76  78
ATOM     78  C   UNL     1     146.049 165.139 190.479  0.00  0.00    -0.057 C 
ATOM     79  H   UNL     1     146.768 165.231 191.296  0.00  0.00    +0.023 HD
ATOM     80  H   UNL     1     145.379 164.301 190.709  0.00  0.00    +0.023 HD
ATOM     81  H   UNL     1     146.626 164.864 189.594  0.00  0.00    +0.023 HD
ENDBRANCH  76  78
BRANCH  76  82
ATOM     82  C   UNL     1     144.056 166.446 191.292  0.00  0.00    +0.067 C 
ATOM     83  H   UNL     1     143.305 167.144 190.898  0.00  0.00    +0.060 HD
BRANCH  82  84
ATOM     84  C   UNL     1     144.462 166.933 192.723  0.00  0.00    -0.017 C 
ATOM     85  H   UNL     1     145.068 167.842 192.628  0.00  0.00    +0.032 HD
BRANCH  84  86
ATOM     86  C   UNL     1     143.204 167.329 193.514  0.00  0.00    -0.060 C 
ATOM     87  H   UNL     1     142.566 167.994 192.926  0.00  0.00    +0.023 HD
ATOM     88  H   UNL     1     143.466 167.871 194.428  0.00  0.00    +0.023 HD
ATOM     89  H   UNL     1     142.614 166.451 193.801  0.00  0.00    +0.023 HD
ENDBRANCH  84  86
BRANCH  84  90
ATOM     90  C   UNL     1     145.282 165.881 193.506  0.00  0.00    -0.041 C 
ATOM     91  H   UNL     1     145.677 165.122 192.823  0.00  0.00    +0.027 HD
ATOM     92  H   UNL     1     144.633 165.344 194.209  0.00  0.00    +0.027 HD
BRANCH  90  93
ATOM     93  C   UNL     1     146.463 166.481 194.266  0.00  0.00    +0.007 C 
ATOM     94  H   UNL     1     146.846 167.369 193.755  0.00  0.00    +0.034 HD
ATOM     95  H   UNL     1     146.169 166.801 195.272  0.00  0.00    +0.034 HD
BRANCH  93  96
ATOM     96  C   UNL     1     147.573 165.463 194.433  0.00  0.00    +0.139 C 
ATOM     97  O   UNL     1     147.878 164.720 193.496  0.00  0.00    -0.297 OA
BRANCH  96  98
ATOM     98  C   UNL     1     148.304 165.418 195.772  0.00  0.00    +0.041 C 
ATOM     99  H   UNL     1     147.781 164.680 196.394  0.00  0.00    +0.040 HD
BRANCH  98 100
ATOM    100  C   UNL     1     148.148 166.755 196.509  0.00  0.00    -0.053 C 
ATOM    101  H   UNL     1     147.731 166.614 197.512  0.00  0.00    +0.024 HD
ATOM    102  H   UNL     1     147.464 167.415 195.962  0.00  0.00    +0.024 HD
ATOM    103  H   UNL     1     149.102 167.282 196.604  0.00  0.00    +0.024 HD
ENDBRANCH  98 100
BRANCH  98 104
ATOM    104  C   UNL     1     149.775 164.955 195.640  0.00  0.00    +0.071 C 
ATOM    105  H   UNL     1     149.826 164.241 194.806  0.00  0.00    +0.061 HD
BRANCH 104 106
ATOM    106  C   UNL     1     150.788 166.104 195.395  0.00  0.00    -0.006 C 
ATOM    107  H   UNL     1     150.469 167.019 195.911  0.00  0.00    +0.033 HD
ATOM    108  H   UNL     1     151.759 165.855 195.838  0.00  0.00    +0.033 HD
BRANCH 106 109
ATOM    109  C   UNL     1     151.015 166.346 193.930  0.00  0.00    -0.067 C 
ATOM    110  C   UNL     1     152.226 166.515 193.383  0.00  0.00    -0.005 C 
ATOM    111  H   UNL     1     150.117 166.385 193.322  0.00  0.00    +0.059 HD
ATOM    112  H   UNL     1     153.103 166.437 194.025  0.00  0.00    +0.078 HD
BRANCH 110 113
ATOM    113  N   UNL     1     152.504 166.797 192.056  0.00  0.00    -0.284 N 
ATOM    114  C   UNL     1     153.067 165.905 191.146  0.00  0.00    +0.206 C 
ATOM    115  O   UNL     1     153.341 164.721 191.298  0.00  0.00    -0.279 OA
ATOM    116  H   UNL     1     153.248 166.381 190.166  0.00  0.00    +0.126 HD
BRANCH 113 117
ATOM    117  C   UNL     1     152.056 168.095 191.564  0.00  0.00    +0.007 C 
ATOM    118  H   UNL     1     152.606 168.879 192.095  0.00  0.00    +0.043 HD
ATOM    119  H   UNL     1     152.248 168.166 190.490  0.00  0.00    +0.043 HD
ATOM    120  H   UNL     1     150.988 168.246 191.742  0.00  0.00    +0.043 HD
ENDBRANCH 113 117
ENDBRANCH 110 113
ENDBRANCH 106 109
ENDBRANCH 104 106
BRANCH 104 121
ATOM    121  O   UNL     1     150.132 164.257 196.847  0.00  0.00    -0.379 OA
BRANCH 121 122
ATOM    122  C   UNL     1     151.118 163.249 196.646  0.00  0.00    +0.037 C 
ATOM    123  H   UNL     1     151.282 163.100 195.575  0.00  0.00    +0.052 HD
ATOM    124  H   UNL     1     152.066 163.504 197.131  0.00  0.00    +0.052 HD
ATOM    125  H   UNL     1     150.742 162.317 197.072  0.00  0.00    +0.052 HD
ENDBRANCH 121 122
ENDBRANCH 104 121
ENDBRANCH  98 104
ENDBRANCH  96  98
ENDBRANCH  93  96
ENDBRANCH  90  93
ENDBRANCH  84  90
ENDBRANCH  82  84
BRANCH  82 126
ATOM    126  O   UNL     1     143.477 165.149 191.424  0.00  0.00    -0.379 OA
BRANCH 126 127
ATOM    127  C   UNL     1     142.654 164.783 190.323  0.00  0.00    +0.037 C 
ATOM    128  H   UNL     1     143.205 164.987 189.403  0.00  0.00    +0.052 HD
ATOM    129  H   UNL     1     142.408 163.720 190.356  0.00  0.00    +0.052 HD
ATOM    130  H   UNL     1     141.735 165.379 190.317  0.00  0.00    +0.052 HD
ENDBRANCH 126 127
ENDBRANCH  82 126
ENDBRANCH  76  82
ENDBRANCH  25  76
BRANCH  31 131
ATOM    131  O   UNL     1     146.472 168.050 184.317  0.00  0.00    -0.379 OA
BRANCH 131 132
ATOM    132  C   UNL     1     147.589 168.683 184.928  0.00  0.00    +0.037 C 
ATOM    133  H   UNL     1     148.082 168.020 185.645  0.00  0.00    +0.052 HD
ATOM    134  H   UNL     1     148.308 168.941 184.143  0.00  0.00    +0.052 HD
ATOM    135  H   UNL     1     147.280 169.606 185.427  0.00  0.00    +0.052 HD
ENDBRANCH 131 132
ENDBRANCH  31 131
BRANCH  29 136
ATOM    136  O   UNL     1     142.983 169.416 185.854  0.00  0.00    -0.376 OA
BRANCH 136 137
ATOM    137  C   UNL     1     142.502 169.080 184.557  0.00  0.00    +0.037 C 
ATOM    138  H   UNL     1     143.053 169.625 183.784  0.00  0.00    +0.052 HD
ATOM    139  H   UNL     1     141.447 169.359 184.500  0.00  0.00    +0.052 HD
ATOM    140  H   UNL     1     142.587 168.000 184.388  0.00  0.00    +0.052 HD
ENDBRANCH 136 137
ENDBRANCH  29 136
BRANCH  16 141
ATOM    141  O   UNL     1     154.769 165.134 186.973  0.00  0.00    -0.379 OA
BRANCH 141 142
ATOM    142  C   UNL     1     155.281 164.640 188.206  0.00  0.00    +0.037 C 
ATOM    143  H   UNL     1     155.867 163.730 188.050  0.00  0.00    +0.052 HD
ATOM    144  H   UNL     1     155.942 165.399 188.628  0.00  0.00    +0.052 HD
ATOM    145  H   UNL     1     154.474 164.452 188.920  0.00  0.00    +0.052 HD
ENDBRANCH 141 142
ENDBRANCH  16 141
BRANCH   6 146
ATOM    146  O   UNL     1     147.781 159.832 187.291  0.00  0.00    -0.379 OA
BRANCH 146 147
ATOM    147  C   UNL     1     147.457 159.979 188.668  0.00  0.00    +0.037 C 
ATOM    148  H   UNL     1     148.349 159.931 189.299  0.00  0.00    +0.052 HD
ATOM    149  H   UNL     1     146.988 160.956 188.805  0.00  0.00    +0.052 HD
ATOM    150  H   UNL     1     146.743 159.208 188.974  0.00  0.00    +0.052 HD
ENDBRANCH 146 147
ENDBRANCH   6 146
BRANCH   4 151
ATOM    151  O   UNL     1     145.020 162.221 186.989  0.00  0.00    -0.376 OA
BRANCH 151 152
ATOM    152  C   UNL     1     144.213 161.824 188.094  0.00  0.00    +0.037 C 
ATOM    153  H   UNL     1     144.539 162.326 189.011  0.00  0.00    +0.052 HD
ATOM    154  H   UNL     1     143.181 162.123 187.887  0.00  0.00    +0.052 HD
ATOM    155  H   UNL     1     144.236 160.740 188.225  0.00  0.00    +0.052 HD
ENDBRANCH 151 152
ENDBRANCH   4 151
TORSDOF 33
ENDMDL
MODEL 7
REMARK VINA RESULT:      -4.8      3.189      9.451
REMARK  Name = Reidispongiolide A_conf2
REMARK  33 active torsions:
REMARK  status: ('A' for Active; 'I' for Inactive)
REMARK    1  A    between atoms: C_1  and  C_2
REMARK    2  A    between atoms: C_5  and  O_67
REMARK    3  A    between atoms: C_7  and  O_65
REMARK    4  A    between atoms: C_8  and  C_64
REMARK    5  A    between atoms: C_17  and  O_62
REMARK    6  A    between atoms: C_19  and  C_61
REMARK    7  A    between atoms: C_26  and  C_38
REMARK    8  A    between atoms: C_27  and  C_37
REMARK    9  A    between atoms: C_30  and  O_35
REMARK   10  A    between atoms: C_32  and  O_33
REMARK   11  A    between atoms: O_33  and  C_34
REMARK   12  A    between atoms: O_35  and  C_36
REMARK   13  A    between atoms: C_38  and  C_39
REMARK   14  A    between atoms: C_38  and  C_40
REMARK   15  A    between atoms: C_40  and  C_41
REMARK   16  A    between atoms: C_40  and  O_59
REMARK   17  A    between atoms: C_41  and  C_42
REMARK   18  A    between atoms: C_41  and  C_43
REMARK   19  A    between atoms: C_43  and  C_44
REMARK   20  A    between atoms: C_44  and  C_45
REMARK   21  A    between atoms: C_45  and  C_47
REMARK   22  A    between atoms: C_47  and  C_48
REMARK   23  A    between atoms: C_47  and  C_49
REMARK   24  A    between atoms: C_49  and  C_50
REMARK   25  A    between atoms: C_49  and  O_57
REMARK   26  A    between atoms: C_50  and  C_51
REMARK   27  A    between atoms: C_52  and  N_53
REMARK   28  A    between atoms: N_53  and  C_54
REMARK   29  A    between atoms: O_57  and  C_58
REMARK   30  A    between atoms: O_59  and  C_60
REMARK   31  A    between atoms: O_62  and  C_63
REMARK   32  A    between atoms: O_65  and  C_66
REMARK   33  A    between atoms: O_67  and  C_68
REMARK                            x       y       z     vdW  Elec       q    Type
REMARK                         _______ _______ _______ _____ _____    ______ ____
ROOT
ATOM      1  C   UNL     1     149.497 164.867 183.678  0.00  0.00    +0.001 C 
ATOM      2  C   UNL     1     149.860 165.528 184.997  0.00  0.00    -0.080 C 
ATOM      3  C   UNL     1     149.441 165.113 186.208  0.00  0.00    -0.059 C 
ATOM      4  C   UNL     1     149.752 165.726 187.551  0.00  0.00    +0.079 C 
ATOM      5  C   UNL     1     148.491 165.828 188.444  0.00  0.00    +0.004 C 
ATOM      6  C   UNL     1     147.606 167.072 188.230  0.00  0.00    +0.067 C 
ATOM      7  C   UNL     1     146.168 166.838 187.677  0.00  0.00    +0.020 C 
ATOM      8  C   UNL     1     145.130 166.020 188.501  0.00  0.00    +0.112 C 
ATOM      9  C   UNL     1     145.235 164.491 188.426  0.00  0.00    +0.006 C 
ATOM     10  C   UNL     1     144.178 163.850 189.277  0.00  0.00    -0.057 C 
ATOM     11  C   UNL     1     143.668 164.549 190.309  0.00  0.00    +0.022 C 
ATOM     12  C   UNL     1     144.173 165.884 190.696  0.00  0.00    +0.332 C 
ATOM     13  O   UNL     1     143.827 166.396 191.751  0.00  0.00    -0.246 OA
ATOM     14  O   UNL     1     145.079 166.461 189.865  0.00  0.00    -0.458 OA
ATOM     15  C   UNL     1     143.827 162.390 189.067  0.00  0.00    -0.004 C 
ATOM     16  C   UNL     1     143.120 161.981 187.750  0.00  0.00    +0.066 C 
ATOM     17  C   UNL     1     144.055 161.761 186.529  0.00  0.00    -0.005 C 
ATOM     18  C   UNL     1     145.348 160.998 186.790  0.00  0.00    -0.070 C 
ATOM     19  C   UNL     1     146.534 161.621 186.652  0.00  0.00    -0.062 C 
ATOM     20  C   UNL     1     147.862 161.115 186.901  0.00  0.00    -0.055 C 
ATOM     21  C   UNL     1     148.257 160.513 188.038  0.00  0.00    +0.023 C 
ATOM     22  C   UNL     1     149.667 160.156 188.322  0.00  0.00    +0.332 C 
ATOM     23  O   UNL     1     150.002 159.504 189.296  0.00  0.00    -0.246 OA
ATOM     24  O   UNL     1     150.486 160.717 187.407  0.00  0.00    -0.457 OA
ATOM     25  C   UNL     1     151.930 160.618 187.587  0.00  0.00    +0.114 C 
ATOM     26  C   UNL     1     152.471 159.961 186.282  0.00  0.00    +0.012 C 
ATOM     27  C   UNL     1     151.979 160.627 185.007  0.00  0.00    -0.079 C 
ATOM     28  C   UNL     1     152.673 161.547 184.320  0.00  0.00    -0.059 C 
ATOM     29  C   UNL     1     152.253 162.138 183.001  0.00  0.00    +0.079 C 
ATOM     30  C   UNL     1     151.590 163.512 183.164  0.00  0.00    +0.004 C 
ATOM     31  C   UNL     1     150.094 163.433 183.530  0.00  0.00    +0.067 C 
ATOM     32  H   UNL     1     149.928 165.491 182.881  0.00  0.00    +0.037 HD
ATOM     33  H   UNL     1     150.493 166.412 184.924  0.00  0.00    +0.057 HD
ATOM     34  H   UNL     1     148.838 164.210 186.254  0.00  0.00    +0.059 HD
ATOM     35  H   UNL     1     150.440 165.020 188.029  0.00  0.00    +0.064 HD
ATOM     36  H   UNL     1     147.925 164.904 188.333  0.00  0.00    +0.032 HD
ATOM     37  H   UNL     1     148.848 165.826 189.485  0.00  0.00    +0.032 HD
ATOM     38  H   UNL     1     148.121 167.749 187.534  0.00  0.00    +0.060 HD
ATOM     39  H   UNL     1     145.726 167.846 187.652  0.00  0.00    +0.036 HD
ATOM     40  H   UNL     1     144.151 166.289 188.065  0.00  0.00    +0.074 HD
ATOM     41  H   UNL     1     146.194 164.116 188.785  0.00  0.00    +0.035 HD
ATOM     42  H   UNL     1     145.107 164.192 187.385  0.00  0.00    +0.035 HD
ATOM     43  H   UNL     1     142.944 164.129 190.997  0.00  0.00    +0.069 HD
ATOM     44  H   UNL     1     143.173 162.076 189.893  0.00  0.00    +0.034 HD
ATOM     45  H   UNL     1     144.734 161.793 189.220  0.00  0.00    +0.034 HD
ATOM     46  H   UNL     1     142.392 162.766 187.494  0.00  0.00    +0.060 HD
ATOM     47  H   UNL     1     144.285 162.741 186.091  0.00  0.00    +0.034 HD
ATOM     48  H   UNL     1     143.520 161.225 185.732  0.00  0.00    +0.034 HD
ATOM     49  H   UNL     1     146.542 162.651 186.295  0.00  0.00    +0.062 HD
ATOM     50  H   UNL     1     148.589 161.359 186.126  0.00  0.00    +0.062 HD
ATOM     51  H   UNL     1     147.565 160.289 188.841  0.00  0.00    +0.069 HD
ATOM     52  H   UNL     1     152.159 159.958 188.435  0.00  0.00    +0.074 HD
ATOM     53  H   UNL     1     153.562 159.969 186.267  0.00  0.00    +0.038 HD
ATOM     54  H   UNL     1     151.013 160.296 184.633  0.00  0.00    +0.057 HD
ATOM     55  H   UNL     1     153.640 161.879 184.699  0.00  0.00    +0.059 HD
ATOM     56  H   UNL     1     151.581 161.459 182.459  0.00  0.00    +0.064 HD
ATOM     57  H   UNL     1     151.694 164.059 182.217  0.00  0.00    +0.032 HD
ATOM     58  H   UNL     1     152.132 164.097 183.915  0.00  0.00    +0.032 HD
ATOM     59  H   UNL     1     149.987 162.881 184.472  0.00  0.00    +0.060 HD
ENDROOT
BRANCH   1  60
ATOM     60  C   UNL     1     147.982 164.926 183.451  0.00  0.00    -0.057 C 
ATOM     61  H   UNL     1     147.497 165.541 184.217  0.00  0.00    +0.024 HD
ATOM     62  H   UNL     1     147.528 163.933 183.476  0.00  0.00    +0.024 HD
ATOM     63  H   UNL     1     147.745 165.382 182.483  0.00  0.00    +0.024 HD
ENDBRANCH   1  60
BRANCH  26  64
ATOM     64  C   UNL     1     152.073 158.476 186.236  0.00  0.00    -0.056 C 
ATOM     65  H   UNL     1     151.701 158.186 185.250  0.00  0.00    +0.024 HD
ATOM     66  H   UNL     1     151.287 158.266 186.971  0.00  0.00    +0.024 HD
ATOM     67  H   UNL     1     152.931 157.838 186.474  0.00  0.00    +0.024 HD
ENDBRANCH  26  64
BRANCH  18  68
ATOM     68  C   UNL     1     145.175 159.549 187.159  0.00  0.00    -0.043 C 
ATOM     69  H   UNL     1     144.873 158.966 186.278  0.00  0.00    +0.027 HD
ATOM     70  H   UNL     1     146.096 159.088 187.533  0.00  0.00    +0.027 HD
ATOM     71  H   UNL     1     144.404 159.434 187.930  0.00  0.00    +0.027 HD
ENDBRANCH  18  68
BRANCH   7  72
ATOM     72  C   UNL     1     146.205 166.380 186.218  0.00  0.00    -0.057 C 
ATOM     73  H   UNL     1     146.066 165.295 186.151  0.00  0.00    +0.023 HD
ATOM     74  H   UNL     1     147.176 166.614 185.760  0.00  0.00    +0.023 HD
ATOM     75  H   UNL     1     145.428 166.862 185.621  0.00  0.00    +0.023 HD
ENDBRANCH   7  72
BRANCH  25  76
ATOM     76  C   UNL     1     152.470 162.046 187.932  0.00  0.00    +0.020 C 
ATOM     77  H   UNL     1     152.891 162.465 187.013  0.00  0.00    +0.036 HD
BRANCH  76  78
ATOM     78  C   UNL     1     151.291 162.965 188.328  0.00  0.00    -0.057 C 
ATOM     79  H   UNL     1     151.640 163.886 188.801  0.00  0.00    +0.023 HD
ATOM     80  H   UNL     1     150.698 163.239 187.447  0.00  0.00    +0.023 HD
ATOM     81  H   UNL     1     150.617 162.490 189.043  0.00  0.00    +0.023 HD
ENDBRANCH  76  78
BRANCH  76  82
ATOM     82  C   UNL     1     153.532 162.096 189.081  0.00  0.00    +0.067 C 
ATOM     83  H   UNL     1     153.048 162.580 189.940  0.00  0.00    +0.060 HD
BRANCH  82  84
ATOM     84  C   UNL     1     154.805 162.931 188.715  0.00  0.00    -0.017 C 
ATOM     85  H   UNL     1     155.661 162.252 188.631  0.00  0.00    +0.032 HD
BRANCH  84  86
ATOM     86  C   UNL     1     154.623 163.577 187.331  0.00  0.00    -0.060 C 
ATOM     87  H   UNL     1     154.934 164.625 187.346  0.00  0.00    +0.023 HD
ATOM     88  H   UNL     1     153.572 163.564 187.025  0.00  0.00    +0.023 HD
ATOM     89  H   UNL     1     155.204 163.055 186.562  0.00  0.00    +0.023 HD
ENDBRANCH  84  86
BRANCH  84  90
ATOM     90  C   UNL     1     155.141 164.009 189.772  0.00  0.00    -0.041 C 
ATOM     91  H   UNL     1     155.567 164.894 189.289  0.00  0.00    +0.027 HD
ATOM     92  H   UNL     1     155.914 163.639 190.457  0.00  0.00    +0.027 HD
BRANCH  90  93
ATOM     93  C   UNL     1     153.926 164.462 190.578  0.00  0.00    +0.007 C 
ATOM     94  H   UNL     1     153.003 164.050 190.159  0.00  0.00    +0.034 HD
ATOM     95  H   UNL     1     153.983 164.112 191.615  0.00  0.00    +0.034 HD
BRANCH  93  96
ATOM     96  C   UNL     1     153.840 165.974 190.626  0.00  0.00    +0.139 C 
ATOM     97  O   UNL     1     154.438 166.655 189.789  0.00  0.00    -0.297 OA
BRANCH  96  98
ATOM     98  C   UNL     1     152.974 166.605 191.713  0.00  0.00    +0.041 C 
ATOM     99  H   UNL     1     152.640 167.578 191.328  0.00  0.00    +0.040 HD
BRANCH  98 100
ATOM    100  C   UNL     1     153.823 166.928 192.950  0.00  0.00    -0.053 C 
ATOM    101  H   UNL     1     154.883 166.706 192.778  0.00  0.00    +0.024 HD
ATOM    102  H   UNL     1     153.498 166.325 193.805  0.00  0.00    +0.024 HD
ATOM    103  H   UNL     1     153.737 167.980 193.241  0.00  0.00    +0.024 HD
ENDBRANCH  98 100
BRANCH  98 104
ATOM    104  C   UNL     1     151.710 165.772 192.034  0.00  0.00    +0.071 C 
ATOM    105  H   UNL     1     151.884 164.749 191.671  0.00  0.00    +0.061 HD
BRANCH 104 106
ATOM    106  C   UNL     1     151.337 165.728 193.539  0.00  0.00    -0.006 C 
ATOM    107  H   UNL     1     151.870 164.915 194.048  0.00  0.00    +0.033 HD
ATOM    108  H   UNL     1     151.673 166.643 194.040  0.00  0.00    +0.033 HD
BRANCH 106 109
ATOM    109  C   UNL     1     149.852 165.628 193.744  0.00  0.00    -0.067 C 
ATOM    110  C   UNL     1     149.144 166.485 194.491  0.00  0.00    -0.005 C 
ATOM    111  H   UNL     1     149.370 164.795 193.243  0.00  0.00    +0.059 HD
ATOM    112  H   UNL     1     149.663 167.326 194.951  0.00  0.00    +0.078 HD
BRANCH 110 113
ATOM    113  N   UNL     1     147.790 166.421 194.769  0.00  0.00    -0.284 N 
ATOM    114  C   UNL     1     146.775 166.860 193.922  0.00  0.00    +0.206 C 
ATOM    115  O   UNL     1     146.859 167.294 192.780  0.00  0.00    -0.279 OA
ATOM    116  H   UNL     1     145.779 166.757 194.390  0.00  0.00    +0.126 HD
BRANCH 113 117
ATOM    117  C   UNL     1     147.414 165.728 195.996  0.00  0.00    +0.007 C 
ATOM    118  H   UNL     1     147.755 166.321 196.852  0.00  0.00    +0.043 HD
ATOM    119  H   UNL     1     146.327 165.610 196.033  0.00  0.00    +0.043 HD
ATOM    120  H   UNL     1     147.877 164.739 196.059  0.00  0.00    +0.043 HD
ENDBRANCH 113 117
ENDBRANCH 110 113
ENDBRANCH 106 109
ENDBRANCH 104 106
BRANCH 104 121
ATOM    121  O   UNL     1     150.610 166.328 191.289  0.00  0.00    -0.379 OA
BRANCH 121 122
ATOM    122  C   UNL     1     150.735 167.726 191.056  0.00  0.00    +0.037 C 
ATOM    123  H   UNL     1     150.636 168.270 192.000  0.00  0.00    +0.052 HD
ATOM    124  H   UNL     1     151.692 167.977 190.586  0.00  0.00    +0.052 HD
ATOM    125  H   UNL     1     149.924 168.034 190.392  0.00  0.00    +0.052 HD
ENDBRANCH 121 122
ENDBRANCH 104 121
ENDBRANCH  98 104
ENDBRANCH  96  98
ENDBRANCH  93  96
ENDBRANCH  90  93
ENDBRANCH  84  90
ENDBRANCH  82  84
BRANCH  82 126
ATOM    126  O   UNL     1     153.965 160.789 189.453  0.00  0.00    -0.379 OA
BRANCH 126 127
ATOM    127  C   UNL     1     155.310 160.512 189.081  0.00  0.00    +0.037 C 
ATOM    128  H   UNL     1     155.369 160.517 187.990  0.00  0.00    +0.052 HD
ATOM    129  H   UNL     1     155.988 161.273 189.472  0.00  0.00    +0.052 HD
ATOM    130  H   UNL     1     155.610 159.522 189.441  0.00  0.00    +0.052 HD
ENDBRANCH 126 127
ENDBRANCH  82 126
ENDBRANCH  76  82
ENDBRANCH  25  76
BRANCH  31 131
ATOM    131  O   UNL     1     149.427 162.731 182.469  0.00  0.00    -0.379 OA
BRANCH 131 132
ATOM    132  C   UNL     1     148.784 161.536 182.895  0.00  0.00    +0.037 C 
ATOM    133  H   UNL     1     148.581 160.869 182.053  0.00  0.00    +0.052 HD
ATOM    134  H   UNL     1     149.450 161.019 183.594  0.00  0.00    +0.052 HD
ATOM    135  H   UNL     1     147.852 161.769 183.418  0.00  0.00    +0.052 HD
ENDBRANCH 131 132
ENDBRANCH  31 131
BRANCH  29 136
ATOM    136  O   UNL     1     153.450 162.334 182.235  0.00  0.00    -0.376 OA
BRANCH 136 137
ATOM    137  C   UNL     1     153.487 163.607 181.602  0.00  0.00    +0.037 C 
ATOM    138  H   UNL     1     153.635 163.501 180.522  0.00  0.00    +0.052 HD
ATOM    139  H   UNL     1     154.326 164.172 182.016  0.00  0.00    +0.052 HD
ATOM    140  H   UNL     1     152.562 164.160 181.802  0.00  0.00    +0.052 HD
ENDBRANCH 136 137
ENDBRANCH  29 136
BRANCH  16 141
ATOM    141  O   UNL     1     142.387 160.774 188.038  0.00  0.00    -0.379 OA
BRANCH 141 142
ATOM    142  C   UNL     1     142.386 160.409 189.414  0.00  0.00    +0.037 C 
ATOM    143  H   UNL     1     142.232 161.284 190.051  0.00  0.00    +0.052 HD
ATOM    144  H   UNL     1     141.557 159.719 189.581  0.00  0.00    +0.052 HD
ATOM    145  H   UNL     1     143.315 159.901 189.687  0.00  0.00    +0.052 HD
ENDBRANCH 141 142
ENDBRANCH  16 141
BRANCH   6 146
ATOM    146  O   UNL     1     147.539 167.725 189.510  0.00  0.00    -0.379 OA
BRANCH 146 147
ATOM    147  C   UNL     1     147.488 169.145 189.431  0.00  0.00    +0.037 C 
ATOM    148  H   UNL     1     146.736 169.481 188.712  0.00  0.00    +0.052 HD
ATOM    149  H   UNL     1     147.221 169.531 190.417  0.00  0.00    +0.052 HD
ATOM    150  H   UNL     1     148.469 169.546 189.159  0.00  0.00    +0.052 HD
ENDBRANCH 146 147
ENDBRANCH   6 146
BRANCH   4 151
ATOM    151  O   UNL     1     150.433 166.969 187.392  0.00  0.00    -0.376 OA
BRANCH 151 152
ATOM    152  C   UNL     1     151.841 166.863 187.574  0.00  0.00    +0.037 C 
ATOM    153  H   UNL     1     152.328 166.551 186.644  0.00  0.00    +0.052 HD
ATOM    154  H   UNL     1     152.225 167.849 187.849  0.00  0.00    +0.052 HD
ATOM    155  H   UNL     1     152.080 166.165 188.381  0.00  0.00    +0.052 HD
ENDBRANCH 151 152
ENDBRANCH   4 151
TORSDOF 33
ENDMDL
MODEL 8
REMARK VINA RESULT:      -4.7      2.711      5.240
REMARK  Name = Reidispongiolide A_conf2
REMARK  33 active torsions:
REMARK  status: ('A' for Active; 'I' for Inactive)
REMARK    1  A    between atoms: C_1  and  C_2
REMARK    2  A    between atoms: C_5  and  O_67
REMARK    3  A    between atoms: C_7  and  O_65
REMARK    4  A    between atoms: C_8  and  C_64
REMARK    5  A    between atoms: C_17  and  O_62
REMARK    6  A    between atoms: C_19  and  C_61
REMARK    7  A    between atoms: C_26  and  C_38
REMARK    8  A    between atoms: C_27  and  C_37
REMARK    9  A    between atoms: C_30  and  O_35
REMARK   10  A    between atoms: C_32  and  O_33
REMARK   11  A    between atoms: O_33  and  C_34
REMARK   12  A    between atoms: O_35  and  C_36
REMARK   13  A    between atoms: C_38  and  C_39
REMARK   14  A    between atoms: C_38  and  C_40
REMARK   15  A    between atoms: C_40  and  C_41
REMARK   16  A    between atoms: C_40  and  O_59
REMARK   17  A    between atoms: C_41  and  C_42
REMARK   18  A    between atoms: C_41  and  C_43
REMARK   19  A    between atoms: C_43  and  C_44
REMARK   20  A    between atoms: C_44  and  C_45
REMARK   21  A    between atoms: C_45  and  C_47
REMARK   22  A    between atoms: C_47  and  C_48
REMARK   23  A    between atoms: C_47  and  C_49
REMARK   24  A    between atoms: C_49  and  C_50
REMARK   25  A    between atoms: C_49  and  O_57
REMARK   26  A    between atoms: C_50  and  C_51
REMARK   27  A    between atoms: C_52  and  N_53
REMARK   28  A    between atoms: N_53  and  C_54
REMARK   29  A    between atoms: O_57  and  C_58
REMARK   30  A    between atoms: O_59  and  C_60
REMARK   31  A    between atoms: O_62  and  C_63
REMARK   32  A    between atoms: O_65  and  C_66
REMARK   33  A    between atoms: O_67  and  C_68
REMARK                            x       y       z     vdW  Elec       q    Type
REMARK                         _______ _______ _______ _____ _____    ______ ____
ROOT
ATOM      1  C   UNL     1     149.025 163.177 182.784  0.00  0.00    +0.001 C 
ATOM      2  C   UNL     1     148.610 162.315 183.964  0.00  0.00    -0.080 C 
ATOM      3  C   UNL     1     149.114 162.419 185.209  0.00  0.00    -0.059 C 
ATOM      4  C   UNL     1     148.758 161.593 186.421  0.00  0.00    +0.079 C 
ATOM      5  C   UNL     1     150.016 161.151 187.206  0.00  0.00    +0.004 C 
ATOM      6  C   UNL     1     150.715 159.871 186.705  0.00  0.00    +0.067 C 
ATOM      7  C   UNL     1     152.156 160.023 186.132  0.00  0.00    +0.020 C 
ATOM      8  C   UNL     1     153.319 160.516 187.043  0.00  0.00    +0.112 C 
ATOM      9  C   UNL     1     153.424 162.029 187.276  0.00  0.00    +0.006 C 
ATOM     10  C   UNL     1     154.581 162.343 188.179  0.00  0.00    -0.057 C 
ATOM     11  C   UNL     1     155.018 161.389 189.024  0.00  0.00    +0.022 C 
ATOM     12  C   UNL     1     154.344 160.080 189.168  0.00  0.00    +0.332 C 
ATOM     13  O   UNL     1     154.644 159.326 190.081  0.00  0.00    -0.246 OA
ATOM     14  O   UNL     1     153.345 159.806 188.290  0.00  0.00    -0.458 OA
ATOM     15  C   UNL     1     155.125 163.757 188.240  0.00  0.00    -0.004 C 
ATOM     16  C   UNL     1     155.846 164.327 186.993  0.00  0.00    +0.066 C 
ATOM     17  C   UNL     1     154.917 164.909 185.892  0.00  0.00    -0.005 C 
ATOM     18  C   UNL     1     153.750 165.765 186.366  0.00  0.00    -0.070 C 
ATOM     19  C   UNL     1     152.486 165.343 186.173  0.00  0.00    -0.062 C 
ATOM     20  C   UNL     1     151.248 165.956 186.588  0.00  0.00    -0.055 C 
ATOM     21  C   UNL     1     150.970 166.362 187.841  0.00  0.00    +0.023 C 
ATOM     22  C   UNL     1     149.631 166.834 188.265  0.00  0.00    +0.332 C 
ATOM     23  O   UNL     1     149.416 167.313 189.365  0.00  0.00    -0.246 OA
ATOM     24  O   UNL     1     148.718 166.580 187.303  0.00  0.00    -0.457 OA
ATOM     25  C   UNL     1     147.307 166.828 187.577  0.00  0.00    +0.114 C 
ATOM     26  C   UNL     1     146.827 167.799 186.457  0.00  0.00    +0.012 C 
ATOM     27  C   UNL     1     147.188 167.346 185.052  0.00  0.00    -0.079 C 
ATOM     28  C   UNL     1     146.355 166.682 184.235  0.00  0.00    -0.059 C 
ATOM     29  C   UNL     1     146.655 166.320 182.805  0.00  0.00    +0.079 C 
ATOM     30  C   UNL     1     147.126 164.867 182.660  0.00  0.00    +0.004 C 
ATOM     31  C   UNL     1     148.627 164.676 182.953  0.00  0.00    +0.067 C 
ATOM     32  H   UNL     1     148.491 162.787 181.904  0.00  0.00    +0.037 HD
ATOM     33  H   UNL     1     147.859 161.555 183.754  0.00  0.00    +0.057 HD
ATOM     34  H   UNL     1     149.836 163.208 185.399  0.00  0.00    +0.059 HD
ATOM     35  H   UNL     1     148.187 162.271 187.064  0.00  0.00    +0.064 HD
ATOM     36  H   UNL     1     150.700 161.996 187.249  0.00  0.00    +0.032 HD
ATOM     37  H   UNL     1     149.691 160.989 188.246  0.00  0.00    +0.032 HD
ATOM     38  H   UNL     1     150.093 159.421 185.918  0.00  0.00    +0.060 HD
ATOM     39  H   UNL     1     152.454 158.992 185.886  0.00  0.00    +0.036 HD
ATOM     40  H   UNL     1     154.239 160.216 186.512  0.00  0.00    +0.074 HD
ATOM     41  H   UNL     1     152.536 162.445 187.753  0.00  0.00    +0.035 HD
ATOM     42  H   UNL     1     153.564 162.513 186.309  0.00  0.00    +0.035 HD
ATOM     43  H   UNL     1     155.811 161.565 189.741  0.00  0.00    +0.069 HD
ATOM     44  H   UNL     1     155.838 163.809 189.076  0.00  0.00    +0.034 HD
ATOM     45  H   UNL     1     154.313 164.423 188.557  0.00  0.00    +0.034 HD
ATOM     46  H   UNL     1     156.451 163.523 186.549  0.00  0.00    +0.060 HD
ATOM     47  H   UNL     1     154.543 164.076 185.283  0.00  0.00    +0.034 HD
ATOM     48  H   UNL     1     155.500 165.521 185.188  0.00  0.00    +0.034 HD
ATOM     49  H   UNL     1     152.327 164.415 185.622  0.00  0.00    +0.062 HD
ATOM     50  H   UNL     1     150.473 165.969 185.821  0.00  0.00    +0.062 HD
ATOM     51  H   UNL     1     151.708 166.327 188.633  0.00  0.00    +0.069 HD
ATOM     52  H   UNL     1     147.194 167.326 188.549  0.00  0.00    +0.074 HD
ATOM     53  H   UNL     1     145.746 167.936 186.500  0.00  0.00    +0.038 HD
ATOM     54  H   UNL     1     148.180 167.618 184.699  0.00  0.00    +0.057 HD
ATOM     55  H   UNL     1     145.362 166.408 184.593  0.00  0.00    +0.059 HD
ATOM     56  H   UNL     1     147.399 167.001 182.372  0.00  0.00    +0.064 HD
ATOM     57  H   UNL     1     146.922 164.541 181.630  0.00  0.00    +0.032 HD
ATOM     58  H   UNL     1     146.528 164.218 183.309  0.00  0.00    +0.032 HD
ATOM     59  H   UNL     1     148.834 165.007 183.977  0.00  0.00    +0.060 HD
ENDROOT
BRANCH   1  60
ATOM     60  C   UNL     1     150.510 162.968 182.468  0.00  0.00    -0.057 C 
ATOM     61  H   UNL     1     150.697 161.943 182.129  0.00  0.00    +0.024 HD
ATOM     62  H   UNL     1     151.141 163.156 183.340  0.00  0.00    +0.024 HD
ATOM     63  H   UNL     1     150.841 163.632 181.662  0.00  0.00    +0.024 HD
ENDBRANCH   1  60
BRANCH  26  64
ATOM     64  C   UNL     1     147.425 169.198 186.683  0.00  0.00    -0.056 C 
ATOM     65  H   UNL     1     147.280 169.846 185.814  0.00  0.00    +0.024 HD
ATOM     66  H   UNL     1     148.501 169.129 186.880  0.00  0.00    +0.024 HD
ATOM     67  H   UNL     1     146.958 169.684 187.547  0.00  0.00    +0.024 HD
ENDBRANCH  26  64
BRANCH  18  68
ATOM     68  C   UNL     1     154.131 167.075 187.003  0.00  0.00    -0.043 C 
ATOM     69  H   UNL     1     153.798 167.099 188.049  0.00  0.00    +0.027 HD
ATOM     70  H   UNL     1     155.214 167.245 187.020  0.00  0.00    +0.027 HD
ATOM     71  H   UNL     1     153.667 167.914 186.472  0.00  0.00    +0.027 HD
ENDBRANCH  18  68
BRANCH   7  72
ATOM     72  C   UNL     1     152.143 160.767 184.795  0.00  0.00    -0.057 C 
ATOM     73  H   UNL     1     151.789 161.796 184.931  0.00  0.00    +0.023 HD
ATOM     74  H   UNL     1     151.464 160.279 184.083  0.00  0.00    +0.023 HD
ATOM     75  H   UNL     1     153.136 160.805 184.341  0.00  0.00    +0.023 HD
ENDBRANCH   7  72
BRANCH  25  76
ATOM     76  C   UNL     1     146.585 165.441 187.663  0.00  0.00    +0.020 C 
ATOM     77  H   UNL     1     146.063 165.287 186.713  0.00  0.00    +0.036 HD
BRANCH  76  78
ATOM     78  C   UNL     1     147.636 164.314 187.770  0.00  0.00    -0.057 C 
ATOM     79  H   UNL     1     147.326 163.540 188.476  0.00  0.00    +0.023 HD
ATOM     80  H   UNL     1     147.799 163.838 186.795  0.00  0.00    +0.023 HD
ATOM     81  H   UNL     1     148.603 164.680 188.122  0.00  0.00    +0.023 HD
ENDBRANCH  76  78
BRANCH  76  82
ATOM     82  C   UNL     1     145.583 165.287 188.856  0.00  0.00    +0.067 C 
ATOM     83  H   UNL     1     144.591 165.564 188.475  0.00  0.00    +0.060 HD
BRANCH  82  84
ATOM     84  C   UNL     1     145.910 166.222 190.068  0.00  0.00    -0.017 C 
ATOM     85  H   UNL     1     146.616 166.993 189.738  0.00  0.00    +0.032 HD
BRANCH  84  86
ATOM     86  C   UNL     1     144.636 166.959 190.515  0.00  0.00    -0.060 C 
ATOM     87  H   UNL     1     143.912 166.260 190.942  0.00  0.00    +0.023 HD
ATOM     88  H   UNL     1     144.143 167.445 189.667  0.00  0.00    +0.023 HD
ATOM     89  H   UNL     1     144.856 167.729 191.263  0.00  0.00    +0.023 HD
ENDBRANCH  84  86
BRANCH  84  90
ATOM     90  C   UNL     1     146.540 165.464 191.260  0.00  0.00    -0.041 C 
ATOM     91  H   UNL     1     147.139 164.621 190.900  0.00  0.00    +0.027 HD
ATOM     92  H   UNL     1     145.754 165.028 191.888  0.00  0.00    +0.027 HD
BRANCH  90  93
ATOM     93  C   UNL     1     147.446 166.341 192.121  0.00  0.00    +0.007 C 
ATOM     94  H   UNL     1     148.218 166.822 191.513  0.00  0.00    +0.034 HD
ATOM     95  H   UNL     1     146.880 167.146 192.603  0.00  0.00    +0.034 HD
BRANCH  93  96
ATOM     96  C   UNL     1     148.092 165.532 193.227  0.00  0.00    +0.139 C 
ATOM     97  O   UNL     1     147.402 164.803 193.946  0.00  0.00    -0.297 OA
BRANCH  96  98
ATOM     98  C   UNL     1     149.607 165.630 193.391  0.00  0.00    +0.041 C 
ATOM     99  H   UNL     1     149.998 164.605 193.345  0.00  0.00    +0.040 HD
BRANCH  98 100
ATOM    100  C   UNL     1     149.958 166.135 194.797  0.00  0.00    -0.053 C 
ATOM    101  H   UNL     1     150.349 167.159 194.769  0.00  0.00    +0.024 HD
ATOM    102  H   UNL     1     150.733 165.504 195.248  0.00  0.00    +0.024 HD
ATOM    103  H   UNL     1     149.092 166.116 195.466  0.00  0.00    +0.024 HD
ENDBRANCH  98 100
BRANCH  98 104
ATOM    104  C   UNL     1     150.284 166.438 192.258  0.00  0.00    +0.071 C 
ATOM    105  H   UNL     1     149.492 166.788 191.580  0.00  0.00    +0.061 HD
BRANCH 104 106
ATOM    106  C   UNL     1     151.116 167.651 192.747  0.00  0.00    -0.006 C 
ATOM    107  H   UNL     1     151.183 167.661 193.842  0.00  0.00    +0.033 HD
ATOM    108  H   UNL     1     152.153 167.564 192.402  0.00  0.00    +0.033 HD
BRANCH 106 109
ATOM    109  C   UNL     1     150.578 168.949 192.215  0.00  0.00    -0.067 C 
ATOM    110  C   UNL     1     149.357 169.421 192.499  0.00  0.00    -0.005 C 
ATOM    111  H   UNL     1     151.250 169.497 191.562  0.00  0.00    +0.059 HD
ATOM    112  H   UNL     1     148.726 168.854 193.184  0.00  0.00    +0.078 HD
BRANCH 110 113
ATOM    113  N   UNL     1     148.777 170.575 192.001  0.00  0.00    -0.284 N 
ATOM    114  C   UNL     1     148.949 171.852 192.529  0.00  0.00    +0.206 C 
ATOM    115  O   UNL     1     149.677 172.215 193.445  0.00  0.00    -0.279 OA
ATOM    116  H   UNL     1     148.336 172.600 191.996  0.00  0.00    +0.126 HD
BRANCH 113 117
ATOM    117  C   UNL     1     148.027 170.437 190.758  0.00  0.00    +0.007 C 
ATOM    118  H   UNL     1     148.148 171.354 190.172  0.00  0.00    +0.043 HD
ATOM    119  H   UNL     1     148.406 169.580 190.194  0.00  0.00    +0.043 HD
ATOM    120  H   UNL     1     146.959 170.289 190.946  0.00  0.00    +0.043 HD
ENDBRANCH 113 117
ENDBRANCH 110 113
ENDBRANCH 106 109
ENDBRANCH 104 106
BRANCH 104 121
ATOM    121  O   UNL     1     151.137 165.542 191.521  0.00  0.00    -0.379 OA
BRANCH 121 122
ATOM    122  C   UNL     1     152.524 165.765 191.754  0.00  0.00    +0.037 C 
ATOM    123  H   UNL     1     152.685 166.035 192.802  0.00  0.00    +0.052 HD
ATOM    124  H   UNL     1     153.126 164.884 191.505  0.00  0.00    +0.052 HD
ATOM    125  H   UNL     1     152.844 166.601 191.128  0.00  0.00    +0.052 HD
ENDBRANCH 121 122
ENDBRANCH 104 121
ENDBRANCH  98 104
ENDBRANCH  96  98
ENDBRANCH  93  96
ENDBRANCH  90  93
ENDBRANCH  84  90
ENDBRANCH  82  84
BRANCH  82 126
ATOM    126  O   UNL     1     145.549 163.946 189.342  0.00  0.00    -0.379 OA
BRANCH 126 127
ATOM    127  C   UNL     1     144.330 163.271 189.052  0.00  0.00    +0.037 C 
ATOM    128  H   UNL     1     144.317 163.036 187.985  0.00  0.00    +0.052 HD
ATOM    129  H   UNL     1     144.255 162.340 189.617  0.00  0.00    +0.052 HD
ATOM    130  H   UNL     1     143.473 163.915 189.276  0.00  0.00    +0.052 HD
ENDBRANCH 126 127
ENDBRANCH  82 126
ENDBRANCH  76  82
ENDBRANCH  25  76
BRANCH  31 131
ATOM    131  O   UNL     1     149.356 165.485 182.016  0.00  0.00    -0.379 OA
BRANCH 131 132
ATOM    132  C   UNL     1     148.962 165.282 180.664  0.00  0.00    +0.037 C 
ATOM    133  H   UNL     1     149.750 164.787 180.089  0.00  0.00    +0.052 HD
ATOM    134  H   UNL     1     148.074 164.642 180.659  0.00  0.00    +0.052 HD
ATOM    135  H   UNL     1     148.702 166.235 180.195  0.00  0.00    +0.052 HD
ENDBRANCH 131 132
ENDBRANCH  31 131
BRANCH  29 136
ATOM    136  O   UNL     1     145.421 166.440 182.081  0.00  0.00    -0.376 OA
BRANCH 136 137
ATOM    137  C   UNL     1     144.286 166.168 182.895  0.00  0.00    +0.037 C 
ATOM    138  H   UNL     1     144.549 165.495 183.718  0.00  0.00    +0.052 HD
ATOM    139  H   UNL     1     143.528 165.683 182.274  0.00  0.00    +0.052 HD
ATOM    140  H   UNL     1     143.868 167.101 183.291  0.00  0.00    +0.052 HD
ENDBRANCH 136 137
ENDBRANCH  29 136
BRANCH  16 141
ATOM    141  O   UNL     1     156.746 165.347 187.473  0.00  0.00    -0.379 OA
BRANCH 141 142
ATOM    142  C   UNL     1     157.641 165.843 186.484  0.00  0.00    +0.037 C 
ATOM    143  H   UNL     1     158.280 166.631 186.893  0.00  0.00    +0.052 HD
ATOM    144  H   UNL     1     158.283 165.020 186.163  0.00  0.00    +0.052 HD
ATOM    145  H   UNL     1     157.097 166.214 185.611  0.00  0.00    +0.052 HD
ENDBRANCH 141 142
ENDBRANCH  16 141
BRANCH   6 146
ATOM    146  O   UNL     1     150.725 158.970 187.826  0.00  0.00    -0.379 OA
BRANCH 146 147
ATOM    147  C   UNL     1     149.801 159.315 188.852  0.00  0.00    +0.037 C 
ATOM    148  H   UNL     1     150.195 160.102 189.500  0.00  0.00    +0.052 HD
ATOM    149  H   UNL     1     148.888 159.681 188.379  0.00  0.00    +0.052 HD
ATOM    150  H   UNL     1     149.550 158.432 189.449  0.00  0.00    +0.052 HD
ENDBRANCH 146 147
ENDBRANCH   6 146
BRANCH   4 151
ATOM    151  O   UNL     1     147.908 160.507 186.057  0.00  0.00    -0.376 OA
BRANCH 151 152
ATOM    152  C   UNL     1     146.734 160.423 186.860  0.00  0.00    +0.037 C 
ATOM    153  H   UNL     1     146.275 159.433 186.770  0.00  0.00    +0.052 HD
ATOM    154  H   UNL     1     147.023 160.574 187.904  0.00  0.00    +0.052 HD
ATOM    155  H   UNL     1     146.017 161.201 186.587  0.00  0.00    +0.052 HD
ENDBRANCH 151 152
ENDBRANCH   4 151
TORSDOF 33
ENDMDL
MODEL 9
REMARK VINA RESULT:      -4.7      3.283     10.120
REMARK  Name = Reidispongiolide A_conf2
REMARK  33 active torsions:
REMARK  status: ('A' for Active; 'I' for Inactive)
REMARK    1  A    between atoms: C_1  and  C_2
REMARK    2  A    between atoms: C_5  and  O_67
REMARK    3  A    between atoms: C_7  and  O_65
REMARK    4  A    between atoms: C_8  and  C_64
REMARK    5  A    between atoms: C_17  and  O_62
REMARK    6  A    between atoms: C_19  and  C_61
REMARK    7  A    between atoms: C_26  and  C_38
REMARK    8  A    between atoms: C_27  and  C_37
REMARK    9  A    between atoms: C_30  and  O_35
REMARK   10  A    between atoms: C_32  and  O_33
REMARK   11  A    between atoms: O_33  and  C_34
REMARK   12  A    between atoms: O_35  and  C_36
REMARK   13  A    between atoms: C_38  and  C_39
REMARK   14  A    between atoms: C_38  and  C_40
REMARK   15  A    between atoms: C_40  and  C_41
REMARK   16  A    between atoms: C_40  and  O_59
REMARK   17  A    between atoms: C_41  and  C_42
REMARK   18  A    between atoms: C_41  and  C_43
REMARK   19  A    between atoms: C_43  and  C_44
REMARK   20  A    between atoms: C_44  and  C_45
REMARK   21  A    between atoms: C_45  and  C_47
REMARK   22  A    between atoms: C_47  and  C_48
REMARK   23  A    between atoms: C_47  and  C_49
REMARK   24  A    between atoms: C_49  and  C_50
REMARK   25  A    between atoms: C_49  and  O_57
REMARK   26  A    between atoms: C_50  and  C_51
REMARK   27  A    between atoms: C_52  and  N_53
REMARK   28  A    between atoms: N_53  and  C_54
REMARK   29  A    between atoms: O_57  and  C_58
REMARK   30  A    between atoms: O_59  and  C_60
REMARK   31  A    between atoms: O_62  and  C_63
REMARK   32  A    between atoms: O_65  and  C_66
REMARK   33  A    between atoms: O_67  and  C_68
REMARK                            x       y       z     vdW  Elec       q    Type
REMARK                         _______ _______ _______ _____ _____    ______ ____
ROOT
ATOM      1  C   UNL     1     143.548 165.470 185.250  0.00  0.00    +0.001 C 
ATOM      2  C   UNL     1     144.743 166.388 185.447  0.00  0.00    -0.080 C 
ATOM      3  C   UNL     1     144.703 167.582 186.068  0.00  0.00    -0.059 C 
ATOM      4  C   UNL     1     145.843 168.546 186.288  0.00  0.00    +0.079 C 
ATOM      5  C   UNL     1     145.432 170.005 185.976  0.00  0.00    +0.004 C 
ATOM      6  C   UNL     1     145.527 170.437 184.499  0.00  0.00    +0.067 C 
ATOM      7  C   UNL     1     144.195 170.795 183.773  0.00  0.00    +0.020 C 
ATOM      8  C   UNL     1     143.333 171.999 184.255  0.00  0.00    +0.112 C 
ATOM      9  C   UNL     1     142.422 171.757 185.466  0.00  0.00    +0.006 C 
ATOM     10  C   UNL     1     141.668 173.008 185.813  0.00  0.00    -0.057 C 
ATOM     11  C   UNL     1     142.186 174.196 185.448  0.00  0.00    +0.022 C 
ATOM     12  C   UNL     1     143.512 174.326 184.806  0.00  0.00    +0.332 C 
ATOM     13  O   UNL     1     144.032 175.425 184.675  0.00  0.00    -0.246 OA
ATOM     14  O   UNL     1     144.133 173.174 184.446  0.00  0.00    -0.458 OA
ATOM     15  C   UNL     1     140.439 172.924 186.698  0.00  0.00    -0.004 C 
ATOM     16  C   UNL     1     139.173 172.225 186.141  0.00  0.00    +0.066 C 
ATOM     17  C   UNL     1     139.159 170.676 186.257  0.00  0.00    -0.005 C 
ATOM     18  C   UNL     1     139.653 170.086 187.571  0.00  0.00    -0.070 C 
ATOM     19  C   UNL     1     140.774 169.341 187.592  0.00  0.00    -0.062 C 
ATOM     20  C   UNL     1     141.448 168.740 188.718  0.00  0.00    -0.055 C 
ATOM     21  C   UNL     1     141.804 169.392 189.841  0.00  0.00    +0.023 C 
ATOM     22  C   UNL     1     142.639 168.786 190.904  0.00  0.00    +0.332 C 
ATOM     23  O   UNL     1     142.857 169.336 191.969  0.00  0.00    -0.246 OA
ATOM     24  O   UNL     1     143.159 167.614 190.480  0.00  0.00    -0.457 OA
ATOM     25  C   UNL     1     144.134 166.923 191.316  0.00  0.00    +0.114 C 
ATOM     26  C   UNL     1     143.550 165.497 191.550  0.00  0.00    +0.012 C 
ATOM     27  C   UNL     1     143.113 164.794 190.276  0.00  0.00    -0.079 C 
ATOM     28  C   UNL     1     143.865 163.907 189.607  0.00  0.00    -0.059 C 
ATOM     29  C   UNL     1     143.411 163.121 188.407  0.00  0.00    +0.079 C 
ATOM     30  C   UNL     1     143.891 163.743 187.089  0.00  0.00    +0.004 C 
ATOM     31  C   UNL     1     142.994 164.894 186.590  0.00  0.00    +0.067 C 
ATOM     32  H   UNL     1     143.896 164.622 184.642  0.00  0.00    +0.037 HD
ATOM     33  H   UNL     1     145.685 166.034 185.029  0.00  0.00    +0.057 HD
ATOM     34  H   UNL     1     143.759 167.896 186.505  0.00  0.00    +0.059 HD
ATOM     35  H   UNL     1     146.059 168.485 187.360  0.00  0.00    +0.064 HD
ATOM     36  H   UNL     1     144.435 170.168 186.382  0.00  0.00    +0.032 HD
ATOM     37  H   UNL     1     146.096 170.649 186.574  0.00  0.00    +0.032 HD
ATOM     38  H   UNL     1     146.005 169.628 183.931  0.00  0.00    +0.060 HD
ATOM     39  H   UNL     1     144.517 171.108 182.767  0.00  0.00    +0.036 HD
ATOM     40  H   UNL     1     142.669 172.227 183.404  0.00  0.00    +0.074 HD
ATOM     41  H   UNL     1     142.975 171.470 186.360  0.00  0.00    +0.035 HD
ATOM     42  H   UNL     1     141.723 170.960 185.212  0.00  0.00    +0.035 HD
ATOM     43  H   UNL     1     141.724 175.140 185.715  0.00  0.00    +0.069 HD
ATOM     44  H   UNL     1     140.147 173.948 186.971  0.00  0.00    +0.034 HD
ATOM     45  H   UNL     1     140.736 172.481 187.656  0.00  0.00    +0.034 HD
ATOM     46  H   UNL     1     139.070 172.496 185.080  0.00  0.00    +0.060 HD
ATOM     47  H   UNL     1     139.742 170.264 185.423  0.00  0.00    +0.034 HD
ATOM     48  H   UNL     1     138.141 170.293 186.094  0.00  0.00    +0.034 HD
ATOM     49  H   UNL     1     141.274 169.126 186.647  0.00  0.00    +0.062 HD
ATOM     50  H   UNL     1     141.767 167.711 188.556  0.00  0.00    +0.062 HD
ATOM     51  H   UNL     1     141.533 170.427 190.016  0.00  0.00    +0.069 HD
ATOM     52  H   UNL     1     144.225 167.430 192.286  0.00  0.00    +0.074 HD
ATOM     53  H   UNL     1     144.276 164.860 192.056  0.00  0.00    +0.038 HD
ATOM     54  H   UNL     1     142.109 165.019 189.923  0.00  0.00    +0.057 HD
ATOM     55  H   UNL     1     144.873 163.686 189.962  0.00  0.00    +0.059 HD
ATOM     56  H   UNL     1     142.318 163.012 188.395  0.00  0.00    +0.064 HD
ATOM     57  H   UNL     1     143.911 162.954 186.323  0.00  0.00    +0.032 HD
ATOM     58  H   UNL     1     144.924 164.089 187.197  0.00  0.00    +0.032 HD
ATOM     59  H   UNL     1     142.966 165.679 187.355  0.00  0.00    +0.060 HD
ENDROOT
BRANCH   1  60
ATOM     60  C   UNL     1     142.482 166.160 184.392  0.00  0.00    -0.057 C 
ATOM     61  H   UNL     1     142.248 167.155 184.786  0.00  0.00    +0.024 HD
ATOM     62  H   UNL     1     141.554 165.584 184.357  0.00  0.00    +0.024 HD
ATOM     63  H   UNL     1     142.832 166.301 183.364  0.00  0.00    +0.024 HD
ENDBRANCH   1  60
BRANCH  26  64
ATOM     64  C   UNL     1     142.343 165.573 192.500  0.00  0.00    -0.056 C 
ATOM     65  H   UNL     1     141.451 165.953 191.993  0.00  0.00    +0.024 HD
ATOM     66  H   UNL     1     142.560 166.234 193.346  0.00  0.00    +0.024 HD
ATOM     67  H   UNL     1     142.104 164.582 192.903  0.00  0.00    +0.024 HD
ENDBRANCH  26  64
BRANCH  18  68
ATOM     68  C   UNL     1     138.788 170.372 188.769  0.00  0.00    -0.043 C 
ATOM     69  H   UNL     1     139.218 171.192 189.360  0.00  0.00    +0.027 HD
ATOM     70  H   UNL     1     137.772 170.685 188.501  0.00  0.00    +0.027 HD
ATOM     71  H   UNL     1     138.709 169.487 189.411  0.00  0.00    +0.027 HD
ENDBRANCH  18  68
BRANCH   7  72
ATOM     72  C   UNL     1     143.337 169.549 183.550  0.00  0.00    -0.057 C 
ATOM     73  H   UNL     1     143.501 169.144 182.544  0.00  0.00    +0.023 HD
ATOM     74  H   UNL     1     142.269 169.790 183.634  0.00  0.00    +0.023 HD
ATOM     75  H   UNL     1     143.562 168.764 184.275  0.00  0.00    +0.023 HD
ENDBRANCH   7  72
BRANCH  25  76
ATOM     76  C   UNL     1     145.524 167.006 190.601  0.00  0.00    +0.020 C 
ATOM     77  H   UNL     1     145.341 166.919 189.525  0.00  0.00    +0.036 HD
BRANCH  76  78
ATOM     78  C   UNL     1     146.140 168.406 190.825  0.00  0.00    -0.057 C 
ATOM     79  H   UNL     1     145.382 169.137 191.118  0.00  0.00    +0.023 HD
ATOM     80  H   UNL     1     146.904 168.375 191.612  0.00  0.00    +0.023 HD
ATOM     81  H   UNL     1     146.612 168.800 189.923  0.00  0.00    +0.023 HD
ENDBRANCH  76  78
BRANCH  76  82
ATOM     82  C   UNL     1     146.571 165.936 191.056  0.00  0.00    +0.067 C 
ATOM     83  H   UNL     1     146.026 164.989 191.176  0.00  0.00    +0.060 HD
BRANCH  82  84
ATOM     84  C   UNL     1     147.251 166.274 192.425  0.00  0.00    -0.017 C 
ATOM     85  H   UNL     1     147.137 167.347 192.621  0.00  0.00    +0.032 HD
BRANCH  84  86
ATOM     86  C   UNL     1     146.520 165.543 193.564  0.00  0.00    -0.060 C 
ATOM     87  H   UNL     1     146.915 164.531 193.694  0.00  0.00    +0.023 HD
ATOM     88  H   UNL     1     145.453 165.439 193.345  0.00  0.00    +0.023 HD
ATOM     89  H   UNL     1     146.618 166.077 194.516  0.00  0.00    +0.023 HD
ENDBRANCH  84  86
BRANCH  84  90
ATOM     90  C   UNL     1     148.760 165.934 192.448  0.00  0.00    -0.041 C 
ATOM     91  H   UNL     1     149.199 166.092 191.458  0.00  0.00    +0.027 HD
ATOM     92  H   UNL     1     148.903 164.870 192.674  0.00  0.00    +0.027 HD
BRANCH  90  93
ATOM     93  C   UNL     1     149.552 166.775 193.446  0.00  0.00    +0.007 C 
ATOM     94  H   UNL     1     149.531 167.833 193.170  0.00  0.00    +0.034 HD
ATOM     95  H   UNL     1     149.126 166.705 194.453  0.00  0.00    +0.034 HD
BRANCH  93  96
ATOM     96  C   UNL     1     150.987 166.296 193.539  0.00  0.00    +0.139 C 
ATOM     97  O   UNL     1     151.326 165.530 194.445  0.00  0.00    -0.297 OA
BRANCH  96  98
ATOM     98  C   UNL     1     151.968 166.767 192.469  0.00  0.00    +0.041 C 
ATOM     99  H   UNL     1     152.163 165.906 191.816  0.00  0.00    +0.040 HD
BRANCH  98 100
ATOM    100  C   UNL     1     153.322 167.112 193.102  0.00  0.00    -0.053 C 
ATOM    101  H   UNL     1     153.339 168.142 193.478  0.00  0.00    +0.024 HD
ATOM    102  H   UNL     1     154.124 167.024 192.360  0.00  0.00    +0.024 HD
ATOM    103  H   UNL     1     153.568 166.440 193.930  0.00  0.00    +0.024 HD
ENDBRANCH  98 100
BRANCH  98 104
ATOM    104  C   UNL     1     151.394 167.901 191.584  0.00  0.00    +0.071 C 
ATOM    105  H   UNL     1     150.302 167.776 191.551  0.00  0.00    +0.061 HD
BRANCH 104 106
ATOM    106  C   UNL     1     151.734 169.331 192.076  0.00  0.00    -0.006 C 
ATOM    107  H   UNL     1     152.459 169.297 192.900  0.00  0.00    +0.033 HD
ATOM    108  H   UNL     1     152.237 169.896 191.283  0.00  0.00    +0.033 HD
BRANCH 106 109
ATOM    109  C   UNL     1     150.501 170.099 192.458  0.00  0.00    -0.067 C 
ATOM    110  C   UNL     1     150.069 171.186 191.805  0.00  0.00    -0.005 C 
ATOM    111  H   UNL     1     149.966 169.717 193.322  0.00  0.00    +0.059 HD
ATOM    112  H   UNL     1     150.620 171.518 190.925  0.00  0.00    +0.078 HD
BRANCH 110 113
ATOM    113  N   UNL     1     148.979 171.973 192.135  0.00  0.00    -0.284 N 
ATOM    114  C   UNL     1     147.854 172.162 191.334  0.00  0.00    +0.206 C 
ATOM    115  O   UNL     1     147.572 171.634 190.266  0.00  0.00    -0.279 OA
ATOM    116  H   UNL     1     147.147 172.880 191.787  0.00  0.00    +0.126 HD
BRANCH 113 117
ATOM    117  C   UNL     1     148.975 172.543 193.477  0.00  0.00    +0.007 C 
ATOM    118  H   UNL     1     148.080 173.163 193.592  0.00  0.00    +0.043 HD
ATOM    119  H   UNL     1     148.970 171.738 194.217  0.00  0.00    +0.043 HD
ATOM    120  H   UNL     1     149.852 173.173 193.650  0.00  0.00    +0.043 HD
ENDBRANCH 113 117
ENDBRANCH 110 113
ENDBRANCH 106 109
ENDBRANCH 104 106
BRANCH 104 121
ATOM    121  O   UNL     1     151.903 167.724 190.249  0.00  0.00    -0.379 OA
BRANCH 121 122
ATOM    122  C   UNL     1     151.227 166.708 189.517  0.00  0.00    +0.037 C 
ATOM    123  H   UNL     1     150.146 166.860 189.583  0.00  0.00    +0.052 HD
ATOM    124  H   UNL     1     151.532 166.691 188.465  0.00  0.00    +0.052 HD
ATOM    125  H   UNL     1     151.470 165.744 189.970  0.00  0.00    +0.052 HD
ENDBRANCH 121 122
ENDBRANCH 104 121
ENDBRANCH  98 104
ENDBRANCH  96  98
ENDBRANCH  93  96
ENDBRANCH  90  93
ENDBRANCH  84  90
ENDBRANCH  82  84
BRANCH  82 126
ATOM    126  O   UNL     1     147.606 165.770 190.089  0.00  0.00    -0.379 OA
BRANCH 126 127
ATOM    127  C   UNL     1     147.118 165.522 188.776  0.00  0.00    +0.037 C 
ATOM    128  H   UNL     1     146.911 164.453 188.685  0.00  0.00    +0.052 HD
ATOM    129  H   UNL     1     146.194 166.075 188.593  0.00  0.00    +0.052 HD
ATOM    130  H   UNL     1     147.871 165.795 188.029  0.00  0.00    +0.052 HD
ENDBRANCH 126 127
ENDBRANCH  82 126
ENDBRANCH  76  82
ENDBRANCH  25  76
BRANCH  31 131
ATOM    131  O   UNL     1     141.677 164.357 186.386  0.00  0.00    -0.379 OA
BRANCH 131 132
ATOM    132  C   UNL     1     140.679 164.985 187.183  0.00  0.00    +0.037 C 
ATOM    133  H   UNL     1     141.006 165.969 187.531  0.00  0.00    +0.052 HD
ATOM    134  H   UNL     1     139.782 165.114 186.569  0.00  0.00    +0.052 HD
ATOM    135  H   UNL     1     140.422 164.355 188.038  0.00  0.00    +0.052 HD
ENDBRANCH 131 132
ENDBRANCH  31 131
BRANCH  29 136
ATOM    136  O   UNL     1     144.017 161.824 188.508  0.00  0.00    -0.376 OA
BRANCH 136 137
ATOM    137  C   UNL     1     145.413 161.896 188.775  0.00  0.00    +0.037 C 
ATOM    138  H   UNL     1     145.837 162.825 188.379  0.00  0.00    +0.052 HD
ATOM    139  H   UNL     1     145.901 161.050 188.283  0.00  0.00    +0.052 HD
ATOM    140  H   UNL     1     145.599 161.828 189.853  0.00  0.00    +0.052 HD
ENDBRANCH 136 137
ENDBRANCH  29 136
BRANCH  16 141
ATOM    141  O   UNL     1     138.051 172.786 186.853  0.00  0.00    -0.379 OA
BRANCH 141 142
ATOM    142  C   UNL     1     138.369 173.944 187.618  0.00  0.00    +0.037 C 
ATOM    143  H   UNL     1     138.918 173.675 188.525  0.00  0.00    +0.052 HD
ATOM    144  H   UNL     1     139.010 174.586 187.012  0.00  0.00    +0.052 HD
ATOM    145  H   UNL     1     137.466 174.505 187.877  0.00  0.00    +0.052 HD
ENDBRANCH 141 142
ENDBRANCH  16 141
BRANCH   6 146
ATOM    146  O   UNL     1     146.415 171.570 184.483  0.00  0.00    -0.379 OA
BRANCH 146 147
ATOM    147  C   UNL     1     147.083 171.761 183.242  0.00  0.00    +0.037 C 
ATOM    148  H   UNL     1     148.131 172.037 183.387  0.00  0.00    +0.052 HD
ATOM    149  H   UNL     1     147.045 170.822 182.687  0.00  0.00    +0.052 HD
ATOM    150  H   UNL     1     146.574 172.530 182.651  0.00  0.00    +0.052 HD
ENDBRANCH 146 147
ENDBRANCH   6 146
BRANCH   4 151
ATOM    151  O   UNL     1     147.004 168.123 185.577  0.00  0.00    -0.376 OA
BRANCH 151 152
ATOM    152  C   UNL     1     148.220 168.477 186.230  0.00  0.00    +0.037 C 
ATOM    153  H   UNL     1     148.312 167.952 187.186  0.00  0.00    +0.052 HD
ATOM    154  H   UNL     1     149.052 168.173 185.589  0.00  0.00    +0.052 HD
ATOM    155  H   UNL     1     148.282 169.558 186.382  0.00  0.00    +0.052 HD
ENDBRANCH 151 152
ENDBRANCH   4 151
TORSDOF 33
ENDMDL
MODEL 10
REMARK VINA RESULT:      -4.7      1.779      2.607
REMARK  Name = Reidispongiolide A_conf2
REMARK  33 active torsions:
REMARK  status: ('A' for Active; 'I' for Inactive)
REMARK    1  A    between atoms: C_1  and  C_2
REMARK    2  A    between atoms: C_5  and  O_67
REMARK    3  A    between atoms: C_7  and  O_65
REMARK    4  A    between atoms: C_8  and  C_64
REMARK    5  A    between atoms: C_17  and  O_62
REMARK    6  A    between atoms: C_19  and  C_61
REMARK    7  A    between atoms: C_26  and  C_38
REMARK    8  A    between atoms: C_27  and  C_37
REMARK    9  A    between atoms: C_30  and  O_35
REMARK   10  A    between atoms: C_32  and  O_33
REMARK   11  A    between atoms: O_33  and  C_34
REMARK   12  A    between atoms: O_35  and  C_36
REMARK   13  A    between atoms: C_38  and  C_39
REMARK   14  A    between atoms: C_38  and  C_40
REMARK   15  A    between atoms: C_40  and  C_41
REMARK   16  A    between atoms: C_40  and  O_59
REMARK   17  A    between atoms: C_41  and  C_42
REMARK   18  A    between atoms: C_41  and  C_43
REMARK   19  A    between atoms: C_43  and  C_44
REMARK   20  A    between atoms: C_44  and  C_45
REMARK   21  A    between atoms: C_45  and  C_47
REMARK   22  A    between atoms: C_47  and  C_48
REMARK   23  A    between atoms: C_47  and  C_49
REMARK   24  A    between atoms: C_49  and  C_50
REMARK   25  A    between atoms: C_49  and  O_57
REMARK   26  A    between atoms: C_50  and  C_51
REMARK   27  A    between atoms: C_52  and  N_53
REMARK   28  A    between atoms: N_53  and  C_54
REMARK   29  A    between atoms: O_57  and  C_58
REMARK   30  A    between atoms: O_59  and  C_60
REMARK   31  A    between atoms: O_62  and  C_63
REMARK   32  A    between atoms: O_65  and  C_66
REMARK   33  A    between atoms: O_67  and  C_68
REMARK                            x       y       z     vdW  Elec       q    Type
REMARK                         _______ _______ _______ _____ _____    ______ ____
ROOT
ATOM      1  C   UNL     1     145.878 166.187 184.914  0.00  0.00    +0.001 C 
ATOM      2  C   UNL     1     145.560 165.018 185.830  0.00  0.00    -0.080 C 
ATOM      3  C   UNL     1     146.398 164.517 186.758  0.00  0.00    -0.059 C 
ATOM      4  C   UNL     1     146.153 163.355 187.690  0.00  0.00    +0.079 C 
ATOM      5  C   UNL     1     147.375 162.408 187.763  0.00  0.00    +0.004 C 
ATOM      6  C   UNL     1     147.468 161.333 186.663  0.00  0.00    +0.067 C 
ATOM      7  C   UNL     1     148.664 161.430 185.669  0.00  0.00    +0.020 C 
ATOM      8  C   UNL     1     150.128 161.288 186.180  0.00  0.00    +0.112 C 
ATOM      9  C   UNL     1     150.763 162.532 186.817  0.00  0.00    +0.006 C 
ATOM     10  C   UNL     1     152.164 162.234 187.267  0.00  0.00    -0.057 C 
ATOM     11  C   UNL     1     152.496 160.958 187.541  0.00  0.00    +0.022 C 
ATOM     12  C   UNL     1     151.514 159.852 187.510  0.00  0.00    +0.332 C 
ATOM     13  O   UNL     1     151.804 158.752 187.958  0.00  0.00    -0.246 OA
ATOM     14  O   UNL     1     150.276 160.146 187.034  0.00  0.00    -0.458 OA
ATOM     15  C   UNL     1     153.118 163.375 187.558  0.00  0.00    -0.004 C 
ATOM     16  C   UNL     1     153.604 164.254 186.378  0.00  0.00    +0.066 C 
ATOM     17  C   UNL     1     152.636 165.391 185.949  0.00  0.00    -0.005 C 
ATOM     18  C   UNL     1     151.979 166.186 187.070  0.00  0.00    -0.070 C 
ATOM     19  C   UNL     1     150.645 166.120 187.245  0.00  0.00    -0.062 C 
ATOM     20  C   UNL     1     149.829 166.734 188.264  0.00  0.00    -0.055 C 
ATOM     21  C   UNL     1     150.054 166.646 189.589  0.00  0.00    +0.023 C 
ATOM     22  C   UNL     1     149.105 167.148 190.610  0.00  0.00    +0.332 C 
ATOM     23  O   UNL     1     149.367 167.175 191.800  0.00  0.00    -0.246 OA
ATOM     24  O   UNL     1     147.929 167.478 190.035  0.00  0.00    -0.457 OA
ATOM     25  C   UNL     1     146.803 167.853 190.882  0.00  0.00    +0.114 C 
ATOM     26  C   UNL     1     146.359 169.263 190.390  0.00  0.00    +0.012 C 
ATOM     27  C   UNL     1     146.153 169.355 188.888  0.00  0.00    -0.079 C 
ATOM     28  C   UNL     1     144.961 169.244 188.281  0.00  0.00    -0.059 C 
ATOM     29  C   UNL     1     144.720 169.439 186.808  0.00  0.00    +0.079 C 
ATOM     30  C   UNL     1     144.651 168.107 186.050  0.00  0.00    +0.004 C 
ATOM     31  C   UNL     1     146.035 167.538 185.680  0.00  0.00    +0.067 C 
ATOM     32  H   UNL     1     145.026 166.292 184.226  0.00  0.00    +0.037 HD
ATOM     33  H   UNL     1     144.581 164.561 185.691  0.00  0.00    +0.057 HD
ATOM     34  H   UNL     1     147.354 165.012 186.899  0.00  0.00    +0.059 HD
ATOM     35  H   UNL     1     146.027 163.811 188.678  0.00  0.00    +0.064 HD
ATOM     36  H   UNL     1     148.273 163.021 187.808  0.00  0.00    +0.032 HD
ATOM     37  H   UNL     1     147.319 161.905 188.742  0.00  0.00    +0.032 HD
ATOM     38  H   UNL     1     146.543 161.361 186.070  0.00  0.00    +0.060 HD
ATOM     39  H   UNL     1     148.542 160.549 185.019  0.00  0.00    +0.036 HD
ATOM     40  H   UNL     1     150.720 161.062 185.276  0.00  0.00    +0.074 HD
ATOM     41  H   UNL     1     150.221 162.879 187.697  0.00  0.00    +0.035 HD
ATOM     42  H   UNL     1     150.773 163.328 186.072  0.00  0.00    +0.035 HD
ATOM     43  H   UNL     1     153.471 160.679 187.923  0.00  0.00    +0.069 HD
ATOM     44  H   UNL     1     154.015 162.953 188.035  0.00  0.00    +0.034 HD
ATOM     45  H   UNL     1     152.679 163.996 188.348  0.00  0.00    +0.034 HD
ATOM     46  H   UNL     1     153.777 163.598 185.512  0.00  0.00    +0.060 HD
ATOM     47  H   UNL     1     151.865 164.959 185.299  0.00  0.00    +0.034 HD
ATOM     48  H   UNL     1     153.162 166.114 185.308  0.00  0.00    +0.034 HD
ATOM     49  H   UNL     1     150.055 165.541 186.534  0.00  0.00    +0.062 HD
ATOM     50  H   UNL     1     148.916 167.199 187.891  0.00  0.00    +0.062 HD
ATOM     51  H   UNL     1     150.934 166.158 189.991  0.00  0.00    +0.069 HD
ATOM     52  H   UNL     1     147.127 167.930 191.929  0.00  0.00    +0.074 HD
ATOM     53  H   UNL     1     145.433 169.571 190.878  0.00  0.00    +0.038 HD
ATOM     54  H   UNL     1     147.040 169.555 188.292  0.00  0.00    +0.057 HD
ATOM     55  H   UNL     1     144.073 169.039 188.881  0.00  0.00    +0.059 HD
ATOM     56  H   UNL     1     145.489 170.085 186.363  0.00  0.00    +0.064 HD
ATOM     57  H   UNL     1     144.076 168.267 185.126  0.00  0.00    +0.032 HD
ATOM     58  H   UNL     1     144.086 167.375 186.637  0.00  0.00    +0.032 HD
ATOM     59  H   UNL     1     146.613 167.384 186.599  0.00  0.00    +0.060 HD
ENDROOT
BRANCH   1  60
ATOM     60  C   UNL     1     147.073 165.850 184.014  0.00  0.00    -0.057 C 
ATOM     61  H   UNL     1     147.977 165.687 184.611  0.00  0.00    +0.024 HD
ATOM     62  H   UNL     1     147.279 166.648 183.298  0.00  0.00    +0.024 HD
ATOM     63  H   UNL     1     146.896 164.927 183.451  0.00  0.00    +0.024 HD
ENDBRANCH   1  60
BRANCH  26  64
ATOM     64  C   UNL     1     147.404 170.315 190.800  0.00  0.00    -0.056 C 
ATOM     65  H   UNL     1     146.934 171.232 191.167  0.00  0.00    +0.024 HD
ATOM     66  H   UNL     1     148.042 170.577 189.948  0.00  0.00    +0.024 HD
ATOM     67  H   UNL     1     148.052 169.928 191.595  0.00  0.00    +0.024 HD
ENDBRANCH  26  64
BRANCH  18  68
ATOM     68  C   UNL     1     152.913 167.032 187.892  0.00  0.00    -0.043 C 
ATOM     69  H   UNL     1     153.953 166.717 187.729  0.00  0.00    +0.027 HD
ATOM     70  H   UNL     1     152.869 168.097 187.632  0.00  0.00    +0.027 HD
ATOM     71  H   UNL     1     152.686 166.937 188.960  0.00  0.00    +0.027 HD
ENDBRANCH  18  68
BRANCH   7  72
ATOM     72  C   UNL     1     148.512 162.637 184.740  0.00  0.00    -0.057 C 
ATOM     73  H   UNL     1     147.528 162.630 184.258  0.00  0.00    +0.023 HD
ATOM     74  H   UNL     1     149.267 162.614 183.944  0.00  0.00    +0.023 HD
ATOM     75  H   UNL     1     148.622 163.581 185.280  0.00  0.00    +0.023 HD
ENDBRANCH   7  72
BRANCH  25  76
ATOM     76  C   UNL     1     145.736 166.710 190.796  0.00  0.00    +0.020 C 
ATOM     77  H   UNL     1     144.992 167.015 190.053  0.00  0.00    +0.036 HD
BRANCH  76  78
ATOM     78  C   UNL     1     146.396 165.425 190.248  0.00  0.00    -0.057 C 
ATOM     79  H   UNL     1     147.049 165.639 189.399  0.00  0.00    +0.023 HD
ATOM     80  H   UNL     1     146.996 164.933 191.023  0.00  0.00    +0.023 HD
ATOM     81  H   UNL     1     145.661 164.700 189.893  0.00  0.00    +0.023 HD
ENDBRANCH  76  78
BRANCH  76  82
ATOM     82  C   UNL     1     145.029 166.356 192.147  0.00  0.00    +0.067 C 
ATOM     83  H   UNL     1     145.182 165.280 192.313  0.00  0.00    +0.060 HD
BRANCH  82  84
ATOM     84  C   UNL     1     143.487 166.624 192.131  0.00  0.00    -0.017 C 
ATOM     85  H   UNL     1     142.968 165.687 191.901  0.00  0.00    +0.032 HD
BRANCH  84  86
ATOM     86  C   UNL     1     143.019 167.049 193.533  0.00  0.00    -0.060 C 
ATOM     87  H   UNL     1     142.086 166.546 193.802  0.00  0.00    +0.023 HD
ATOM     88  H   UNL     1     142.818 168.125 193.572  0.00  0.00    +0.023 HD
ATOM     89  H   UNL     1     143.769 166.819 194.297  0.00  0.00    +0.023 HD
ENDBRANCH  84  86
BRANCH  84  90
ATOM     90  C   UNL     1     143.072 167.681 191.081  0.00  0.00    -0.041 C 
ATOM     91  H   UNL     1     142.208 167.328 190.508  0.00  0.00    +0.027 HD
ATOM     92  H   UNL     1     143.878 167.825 190.351  0.00  0.00    +0.027 HD
BRANCH  90  93
ATOM     93  C   UNL     1     142.700 169.028 191.696  0.00  0.00    +0.007 C 
ATOM     94  H   UNL     1     142.302 168.900 192.707  0.00  0.00    +0.034 HD
ATOM     95  H   UNL     1     143.576 169.681 191.785  0.00  0.00    +0.034 HD
BRANCH  93  96
ATOM     96  C   UNL     1     141.691 169.759 190.834  0.00  0.00    +0.139 C 
ATOM     97  O   UNL     1     140.638 169.203 190.507  0.00  0.00    -0.297 OA
BRANCH  96  98
ATOM     98  C   UNL     1     142.010 171.193 190.421  0.00  0.00    +0.041 C 
ATOM     99  H   UNL     1     142.006 171.215 189.323  0.00  0.00    +0.040 HD
BRANCH  98 100
ATOM    100  C   UNL     1     143.444 171.558 190.830  0.00  0.00    -0.053 C 
ATOM    101  H   UNL     1     143.885 170.789 191.475  0.00  0.00    +0.024 HD
ATOM    102  H   UNL     1     143.453 172.499 191.392  0.00  0.00    +0.024 HD
ATOM    103  H   UNL     1     144.094 171.691 189.960  0.00  0.00    +0.024 HD
ENDBRANCH  98 100
BRANCH  98 104
ATOM    104  C   UNL     1     140.951 172.210 190.911  0.00  0.00    +0.071 C 
ATOM    105  H   UNL     1     140.006 171.978 190.400  0.00  0.00    +0.061 HD
BRANCH 104 106
ATOM    106  C   UNL     1     140.723 172.207 192.445  0.00  0.00    -0.006 C 
ATOM    107  H   UNL     1     139.795 171.679 192.699  0.00  0.00    +0.033 HD
ATOM    108  H   UNL     1     141.516 171.640 192.946  0.00  0.00    +0.033 HD
BRANCH 106 109
ATOM    109  C   UNL     1     140.740 173.597 193.014  0.00  0.00    -0.067 C 
ATOM    110  C   UNL     1     140.658 173.866 194.324  0.00  0.00    -0.005 C 
ATOM    111  H   UNL     1     140.819 174.397 192.284  0.00  0.00    +0.059 HD
ATOM    112  H   UNL     1     140.611 173.033 195.025  0.00  0.00    +0.078 HD
BRANCH 110 113
ATOM    113  N   UNL     1     140.611 175.118 194.912  0.00  0.00    -0.284 N 
ATOM    114  C   UNL     1     141.699 175.975 195.066  0.00  0.00    +0.206 C 
ATOM    115  O   UNL     1     142.847 175.842 194.659  0.00  0.00    -0.279 OA
ATOM    116  H   UNL     1     141.423 176.890 195.618  0.00  0.00    +0.126 HD
BRANCH 113 117
ATOM    117  C   UNL     1     139.289 175.608 195.286  0.00  0.00    +0.007 C 
ATOM    118  H   UNL     1     139.137 176.590 194.827  0.00  0.00    +0.043 HD
ATOM    119  H   UNL     1     138.526 174.908 194.934  0.00  0.00    +0.043 HD
ATOM    120  H   UNL     1     139.192 175.718 196.370  0.00  0.00    +0.043 HD
ENDBRANCH 113 117
ENDBRANCH 110 113
ENDBRANCH 106 109
ENDBRANCH 104 106
BRANCH 104 121
ATOM    121  O   UNL     1     141.371 173.524 190.496  0.00  0.00    -0.379 OA
BRANCH 121 122
ATOM    122  C   UNL     1     140.924 173.873 189.190  0.00  0.00    +0.037 C 
ATOM    123  H   UNL     1     139.847 173.699 189.108  0.00  0.00    +0.052 HD
ATOM    124  H   UNL     1     141.148 174.917 188.949  0.00  0.00    +0.052 HD
ATOM    125  H   UNL     1     141.435 173.227 188.473  0.00  0.00    +0.052 HD
ENDBRANCH 121 122
ENDBRANCH 104 121
ENDBRANCH  98 104
ENDBRANCH  96  98
ENDBRANCH  93  96
ENDBRANCH  90  93
ENDBRANCH  84  90
ENDBRANCH  82  84
BRANCH  82 126
ATOM    126  O   UNL     1     145.585 167.089 193.238  0.00  0.00    -0.379 OA
BRANCH 126 127
ATOM    127  C   UNL     1     146.491 166.327 194.027  0.00  0.00    +0.037 C 
ATOM    128  H   UNL     1     146.411 165.281 193.723  0.00  0.00    +0.052 HD
ATOM    129  H   UNL     1     147.519 166.660 193.871  0.00  0.00    +0.052 HD
ATOM    130  H   UNL     1     146.230 166.401 195.088  0.00  0.00    +0.052 HD
ENDBRANCH 126 127
ENDBRANCH  82 126
ENDBRANCH  76  82
ENDBRANCH  25  76
BRANCH  31 131
ATOM    131  O   UNL     1     146.689 168.504 184.842  0.00  0.00    -0.379 OA
BRANCH 131 132
ATOM    132  C   UNL     1     147.907 168.997 185.388  0.00  0.00    +0.037 C 
ATOM    133  H   UNL     1     148.116 168.551 186.365  0.00  0.00    +0.052 HD
ATOM    134  H   UNL     1     148.721 168.732 184.705  0.00  0.00    +0.052 HD
ATOM    135  H   UNL     1     147.873 170.086 185.476  0.00  0.00    +0.052 HD
ENDBRANCH 131 132
ENDBRANCH  31 131
BRANCH  29 136
ATOM    136  O   UNL     1     143.437 170.067 186.679  0.00  0.00    -0.376 OA
BRANCH 136 137
ATOM    137  C   UNL     1     142.386 169.272 187.215  0.00  0.00    +0.037 C 
ATOM    138  H   UNL     1     141.944 169.752 188.095  0.00  0.00    +0.052 HD
ATOM    139  H   UNL     1     142.805 168.308 187.516  0.00  0.00    +0.052 HD
ATOM    140  H   UNL     1     141.615 169.095 186.456  0.00  0.00    +0.052 HD
ENDBRANCH 136 137
ENDBRANCH  29 136
BRANCH  16 141
ATOM    141  O   UNL     1     154.875 164.806 186.777  0.00  0.00    -0.379 OA
BRANCH 141 142
ATOM    142  C   UNL     1     155.426 164.211 187.946  0.00  0.00    +0.037 C 
ATOM    143  H   UNL     1     155.234 163.134 187.965  0.00  0.00    +0.052 HD
ATOM    144  H   UNL     1     156.507 164.361 187.926  0.00  0.00    +0.052 HD
ATOM    145  H   UNL     1     155.031 164.681 188.851  0.00  0.00    +0.052 HD
ENDBRANCH 141 142
ENDBRANCH  16 141
BRANCH   6 146
ATOM    146  O   UNL     1     147.507 160.071 187.355  0.00  0.00    -0.379 OA
BRANCH 146 147
ATOM    147  C   UNL     1     147.252 160.172 188.751  0.00  0.00    +0.037 C 
ATOM    148  H   UNL     1     148.071 160.672 189.275  0.00  0.00    +0.052 HD
ATOM    149  H   UNL     1     146.342 160.760 188.890  0.00  0.00    +0.052 HD
ATOM    150  H   UNL     1     147.088 159.177 189.179  0.00  0.00    +0.052 HD
ENDBRANCH 146 147
ENDBRANCH   6 146
BRANCH   4 151
ATOM    151  O   UNL     1     144.939 162.686 187.353  0.00  0.00    -0.376 OA
BRANCH 151 152
ATOM    152  C   UNL     1     144.166 162.323 188.493  0.00  0.00    +0.037 C 
ATOM    153  H   UNL     1     144.761 162.410 189.408  0.00  0.00    +0.052 HD
ATOM    154  H   UNL     1     143.321 163.013 188.565  0.00  0.00    +0.052 HD
ATOM    155  H   UNL     1     143.772 161.309 188.391  0.00  0.00    +0.052 HD
ENDBRANCH 151 152
ENDBRANCH   4 151
TORSDOF 33
ENDMDL
