MODEL 1
REMARK VINA RESULT:      -5.5      0.000      0.000
REMARK  Name = Reidispongiolide A_conf3
REMARK  33 active torsions:
REMARK  status: ('A' for Active; 'I' for Inactive)
REMARK    1  A    between atoms: C_1  and  C_2
REMARK    2  A    between atoms: C_5  and  O_67
REMARK    3  A    between atoms: C_7  and  O_65
REMARK    4  A    between atoms: C_8  and  C_64
REMARK    5  A    between atoms: C_17  and  O_62
REMARK    6  A    between atoms: C_19  and  C_61
REMARK    7  A    between atoms: C_26  and  C_38
REMARK    8  A    between atoms: C_27  and  C_37
REMARK    9  A    between atoms: C_30  and  O_35
REMARK   10  A    between atoms: C_32  and  O_33
REMARK   11  A    between atoms: O_33  and  C_34
REMARK   12  A    between atoms: O_35  and  C_36
REMARK   13  A    between atoms: C_38  and  C_39
REMARK   14  A    between atoms: C_38  and  C_40
REMARK   15  A    between atoms: C_40  and  C_41
REMARK   16  A    between atoms: C_40  and  O_59
REMARK   17  A    between atoms: C_41  and  C_42
REMARK   18  A    between atoms: C_41  and  C_43
REMARK   19  A    between atoms: C_43  and  C_44
REMARK   20  A    between atoms: C_44  and  C_45
REMARK   21  A    between atoms: C_45  and  C_47
REMARK   22  A    between atoms: C_47  and  C_48
REMARK   23  A    between atoms: C_47  and  C_49
REMARK   24  A    between atoms: C_49  and  C_50
REMARK   25  A    between atoms: C_49  and  O_57
REMARK   26  A    between atoms: C_50  and  C_51
REMARK   27  A    between atoms: C_52  and  N_53
REMARK   28  A    between atoms: N_53  and  C_54
REMARK   29  A    between atoms: O_57  and  C_58
REMARK   30  A    between atoms: O_59  and  C_60
REMARK   31  A    between atoms: O_62  and  C_63
REMARK   32  A    between atoms: O_65  and  C_66
REMARK   33  A    between atoms: O_67  and  C_68
REMARK                            x       y       z     vdW  Elec       q    Type
REMARK                         _______ _______ _______ _____ _____    ______ ____
ROOT
ATOM      1  C   UNL     1     145.023 168.217 188.781  0.00  0.00    +0.001 C 
ATOM      2  C   UNL     1     145.910 167.502 187.767  0.00  0.00    -0.080 C 
ATOM      3  C   UNL     1     146.252 167.967 186.552  0.00  0.00    -0.059 C 
ATOM      4  C   UNL     1     147.059 167.325 185.452  0.00  0.00    +0.079 C 
ATOM      5  C   UNL     1     147.507 165.860 185.617  0.00  0.00    +0.004 C 
ATOM      6  C   UNL     1     148.657 165.586 186.611  0.00  0.00    +0.067 C 
ATOM      7  C   UNL     1     148.729 164.096 187.067  0.00  0.00    +0.020 C 
ATOM      8  C   UNL     1     148.907 163.081 185.890  0.00  0.00    +0.112 C 
ATOM      9  C   UNL     1     150.362 162.812 185.449  0.00  0.00    +0.006 C 
ATOM     10  C   UNL     1     151.017 161.682 186.199  0.00  0.00    -0.057 C 
ATOM     11  C   UNL     1     150.260 160.818 186.896  0.00  0.00    +0.022 C 
ATOM     12  C   UNL     1     148.788 160.872 186.913  0.00  0.00    +0.332 C 
ATOM     13  O   UNL     1     148.132 160.031 187.515  0.00  0.00    -0.246 OA
ATOM     14  O   UNL     1     148.207 161.840 186.168  0.00  0.00    -0.458 OA
ATOM     15  C   UNL     1     152.500 161.426 185.963  0.00  0.00    -0.004 C 
ATOM     16  C   UNL     1     153.521 161.312 187.135  0.00  0.00    +0.066 C 
ATOM     17  C   UNL     1     154.165 162.656 187.568  0.00  0.00    -0.005 C 
ATOM     18  C   UNL     1     153.553 163.445 188.712  0.00  0.00    -0.070 C 
ATOM     19  C   UNL     1     154.330 163.899 189.720  0.00  0.00    -0.062 C 
ATOM     20  C   UNL     1     153.872 164.690 190.844  0.00  0.00    -0.055 C 
ATOM     21  C   UNL     1     153.308 165.900 190.714  0.00  0.00    +0.023 C 
ATOM     22  C   UNL     1     152.727 166.555 191.895  0.00  0.00    +0.332 C 
ATOM     23  O   UNL     1     153.048 166.335 193.054  0.00  0.00    -0.246 OA
ATOM     24  O   UNL     1     151.725 167.361 191.473  0.00  0.00    -0.457 OA
ATOM     25  C   UNL     1     150.722 167.700 192.457  0.00  0.00    +0.114 C 
ATOM     26  C   UNL     1     150.411 169.230 192.436  0.00  0.00    +0.012 C 
ATOM     27  C   UNL     1     149.556 169.726 191.293  0.00  0.00    -0.079 C 
ATOM     28  C   UNL     1     148.360 170.323 191.476  0.00  0.00    -0.059 C 
ATOM     29  C   UNL     1     147.500 170.884 190.378  0.00  0.00    +0.079 C 
ATOM     30  C   UNL     1     146.940 169.862 189.370  0.00  0.00    +0.004 C 
ATOM     31  C   UNL     1     145.810 168.961 189.906  0.00  0.00    +0.067 C 
ATOM     32  H   UNL     1     144.441 167.416 189.264  0.00  0.00    +0.037 HD
ATOM     33  H   UNL     1     146.260 166.530 188.098  0.00  0.00    +0.057 HD
ATOM     34  H   UNL     1     145.901 168.957 186.266  0.00  0.00    +0.059 HD
ATOM     35  H   UNL     1     146.387 167.344 184.580  0.00  0.00    +0.064 HD
ATOM     36  H   UNL     1     147.834 165.523 184.628  0.00  0.00    +0.032 HD
ATOM     37  H   UNL     1     146.622 165.270 185.872  0.00  0.00    +0.032 HD
ATOM     38  H   UNL     1     148.515 166.207 187.504  0.00  0.00    +0.060 HD
ATOM     39  H   UNL     1     149.608 164.001 187.707  0.00  0.00    +0.036 HD
ATOM     40  H   UNL     1     148.391 163.479 185.011  0.00  0.00    +0.074 HD
ATOM     41  H   UNL     1     150.966 163.721 185.525  0.00  0.00    +0.035 HD
ATOM     42  H   UNL     1     150.354 162.528 184.388  0.00  0.00    +0.035 HD
ATOM     43  H   UNL     1     150.681 159.953 187.400  0.00  0.00    +0.069 HD
ATOM     44  H   UNL     1     152.884 162.147 185.226  0.00  0.00    +0.034 HD
ATOM     45  H   UNL     1     152.537 160.457 185.435  0.00  0.00    +0.034 HD
ATOM     46  H   UNL     1     154.343 160.720 186.702  0.00  0.00    +0.060 HD
ATOM     47  H   UNL     1     154.243 163.320 186.694  0.00  0.00    +0.034 HD
ATOM     48  H   UNL     1     155.203 162.423 187.839  0.00  0.00    +0.034 HD
ATOM     49  H   UNL     1     155.392 163.649 189.749  0.00  0.00    +0.062 HD
ATOM     50  H   UNL     1     153.997 164.238 191.828  0.00  0.00    +0.062 HD
ATOM     51  H   UNL     1     153.166 166.383 189.757  0.00  0.00    +0.069 HD
ATOM     52  H   UNL     1     151.136 167.535 193.459  0.00  0.00    +0.074 HD
ATOM     53  H   UNL     1     149.870 169.428 193.373  0.00  0.00    +0.038 HD
ATOM     54  H   UNL     1     149.955 169.610 190.285  0.00  0.00    +0.057 HD
ATOM     55  H   UNL     1     147.987 170.454 192.493  0.00  0.00    +0.059 HD
ATOM     56  H   UNL     1     148.106 171.612 189.819  0.00  0.00    +0.064 HD
ATOM     57  H   UNL     1     147.767 169.254 188.984  0.00  0.00    +0.032 HD
ATOM     58  H   UNL     1     146.540 170.446 188.531  0.00  0.00    +0.032 HD
ATOM     59  H   UNL     1     145.087 169.583 190.453  0.00  0.00    +0.060 HD
ENDROOT
BRANCH   1  60
ATOM     60  C   UNL     1     143.986 169.152 188.140  0.00  0.00    -0.057 C 
ATOM     61  H   UNL     1     144.473 170.046 187.738  0.00  0.00    +0.024 HD
ATOM     62  H   UNL     1     143.250 169.486 188.879  0.00  0.00    +0.024 HD
ATOM     63  H   UNL     1     143.445 168.676 187.318  0.00  0.00    +0.024 HD
ENDBRANCH   1  60
BRANCH  26  64
ATOM     64  C   UNL     1     151.714 170.041 192.481  0.00  0.00    -0.056 C 
ATOM     65  H   UNL     1     151.981 170.308 193.512  0.00  0.00    +0.024 HD
ATOM     66  H   UNL     1     151.622 170.965 191.906  0.00  0.00    +0.024 HD
ATOM     67  H   UNL     1     152.538 169.469 192.047  0.00  0.00    +0.024 HD
ENDBRANCH  26  64
BRANCH  18  68
ATOM     68  C   UNL     1     152.077 163.687 188.619  0.00  0.00    -0.043 C 
ATOM     69  H   UNL     1     151.877 164.719 188.323  0.00  0.00    +0.027 HD
ATOM     70  H   UNL     1     151.565 163.063 187.886  0.00  0.00    +0.027 HD
ATOM     71  H   UNL     1     151.629 163.484 189.593  0.00  0.00    +0.027 HD
ENDBRANCH  18  68
BRANCH   7  72
ATOM     72  C   UNL     1     147.528 163.770 187.965  0.00  0.00    -0.057 C 
ATOM     73  H   UNL     1     146.601 164.135 187.520  0.00  0.00    +0.023 HD
ATOM     74  H   UNL     1     147.421 162.696 188.140  0.00  0.00    +0.023 HD
ATOM     75  H   UNL     1     147.625 164.266 188.935  0.00  0.00    +0.023 HD
ENDBRANCH   7  72
BRANCH  25  76
ATOM     76  C   UNL     1     149.481 166.757 192.271  0.00  0.00    +0.020 C 
ATOM     77  H   UNL     1     148.612 167.408 192.124  0.00  0.00    +0.036 HD
BRANCH  76  78
ATOM     78  C   UNL     1     149.621 165.887 191.016  0.00  0.00    -0.057 C 
ATOM     79  H   UNL     1     150.176 166.386 190.218  0.00  0.00    +0.023 HD
ATOM     80  H   UNL     1     150.111 164.943 191.255  0.00  0.00    +0.023 HD
ATOM     81  H   UNL     1     148.652 165.613 190.596  0.00  0.00    +0.023 HD
ENDBRANCH  76  78
BRANCH  76  82
ATOM     82  C   UNL     1     149.223 165.950 193.594  0.00  0.00    +0.067 C 
ATOM     83  H   UNL     1     149.249 164.881 193.356  0.00  0.00    +0.060 HD
BRANCH  82  84
ATOM     84  C   UNL     1     147.888 166.136 194.377  0.00  0.00    -0.017 C 
ATOM     85  H   UNL     1     148.118 166.064 195.446  0.00  0.00    +0.032 HD
BRANCH  84  86
ATOM     86  C   UNL     1     147.376 167.573 194.166  0.00  0.00    -0.060 C 
ATOM     87  H   UNL     1     147.680 167.942 193.181  0.00  0.00    +0.023 HD
ATOM     88  H   UNL     1     147.796 168.257 194.912  0.00  0.00    +0.023 HD
ATOM     89  H   UNL     1     146.282 167.634 194.230  0.00  0.00    +0.023 HD
ENDBRANCH  84  86
BRANCH  84  90
ATOM     90  C   UNL     1     146.724 165.152 194.110  0.00  0.00    -0.041 C 
ATOM     91  H   UNL     1     146.957 164.203 194.613  0.00  0.00    +0.027 HD
ATOM     92  H   UNL     1     146.707 164.887 193.050  0.00  0.00    +0.027 HD
BRANCH  90  93
ATOM     93  C   UNL     1     145.322 165.593 194.525  0.00  0.00    +0.007 C 
ATOM     94  H   UNL     1     145.344 166.515 195.111  0.00  0.00    +0.034 HD
ATOM     95  H   UNL     1     144.846 164.819 195.139  0.00  0.00    +0.034 HD
BRANCH  93  96
ATOM     96  C   UNL     1     144.415 165.822 193.321  0.00  0.00    +0.139 C 
ATOM     97  O   UNL     1     144.502 165.075 192.340  0.00  0.00    -0.297 OA
BRANCH  96  98
ATOM     98  C   UNL     1     143.437 167.004 193.357  0.00  0.00    +0.041 C 
ATOM     99  H   UNL     1     143.906 167.742 194.011  0.00  0.00    +0.040 HD
BRANCH  98 100
ATOM    100  C   UNL     1     142.104 166.629 194.008  0.00  0.00    -0.053 C 
ATOM    101  H   UNL     1     141.321 167.365 193.801  0.00  0.00    +0.024 HD
ATOM    102  H   UNL     1     141.747 165.667 193.624  0.00  0.00    +0.024 HD
ATOM    103  H   UNL     1     142.211 166.520 195.094  0.00  0.00    +0.024 HD
ENDBRANCH  98 100
BRANCH  98 104
ATOM    104  C   UNL     1     143.275 167.675 191.972  0.00  0.00    +0.071 C 
ATOM    105  H   UNL     1     144.189 167.555 191.376  0.00  0.00    +0.061 HD
BRANCH 104 106
ATOM    106  C   UNL     1     142.080 167.189 191.114  0.00  0.00    -0.006 C 
ATOM    107  H   UNL     1     141.220 166.982 191.764  0.00  0.00    +0.033 HD
ATOM    108  H   UNL     1     141.753 168.028 190.487  0.00  0.00    +0.033 HD
BRANCH 106 109
ATOM    109  C   UNL     1     142.370 166.028 190.200  0.00  0.00    -0.067 C 
ATOM    110  C   UNL     1     141.961 165.985 188.925  0.00  0.00    -0.005 C 
ATOM    111  H   UNL     1     142.952 165.228 190.651  0.00  0.00    +0.059 HD
ATOM    112  H   UNL     1     141.423 166.841 188.520  0.00  0.00    +0.078 HD
BRANCH 110 113
ATOM    113  N   UNL     1     142.146 164.951 188.022  0.00  0.00    -0.284 N 
ATOM    114  C   UNL     1     141.352 163.808 187.935  0.00  0.00    +0.206 C 
ATOM    115  O   UNL     1     141.512 162.887 187.138  0.00  0.00    -0.279 OA
ATOM    116  H   UNL     1     140.522 163.781 188.650  0.00  0.00    +0.126 HD
BRANCH 113 117
ATOM    117  C   UNL     1     143.235 165.089 187.060  0.00  0.00    +0.007 C 
ATOM    118  H   UNL     1     143.969 164.299 187.256  0.00  0.00    +0.043 HD
ATOM    119  H   UNL     1     143.735 166.058 187.136  0.00  0.00    +0.043 HD
ATOM    120  H   UNL     1     142.840 164.979 186.043  0.00  0.00    +0.043 HD
ENDBRANCH 113 117
ENDBRANCH 110 113
ENDBRANCH 106 109
ENDBRANCH 104 106
BRANCH 104 121
ATOM    121  O   UNL     1     143.042 169.089 192.171  0.00  0.00    -0.379 OA
BRANCH 121 122
ATOM    122  C   UNL     1     142.062 169.631 191.290  0.00  0.00    +0.037 C 
ATOM    123  H   UNL     1     142.088 169.065 190.353  0.00  0.00    +0.052 HD
ATOM    124  H   UNL     1     141.062 169.544 191.718  0.00  0.00    +0.052 HD
ATOM    125  H   UNL     1     142.283 170.680 191.072  0.00  0.00    +0.052 HD
ENDBRANCH 121 122
ENDBRANCH 104 121
ENDBRANCH  98 104
ENDBRANCH  96  98
ENDBRANCH  93  96
ENDBRANCH  90  93
ENDBRANCH  84  90
ENDBRANCH  82  84
BRANCH  82 126
ATOM    126  O   UNL     1     150.315 166.209 194.498  0.00  0.00    -0.379 OA
BRANCH 126 127
ATOM    127  C   UNL     1     150.134 165.624 195.785  0.00  0.00    +0.037 C 
ATOM    128  H   UNL     1     150.757 166.135 196.526  0.00  0.00    +0.052 HD
ATOM    129  H   UNL     1     149.082 165.660 196.083  0.00  0.00    +0.052 HD
ATOM    130  H   UNL     1     150.447 164.575 195.734  0.00  0.00    +0.052 HD
ENDBRANCH 126 127
ENDBRANCH  82 126
ENDBRANCH  76  82
ENDBRANCH  25  76
BRANCH  31 131
ATOM    131  O   UNL     1     146.372 167.982 190.798  0.00  0.00    -0.379 OA
BRANCH 131 132
ATOM    132  C   UNL     1     146.294 166.663 190.264  0.00  0.00    +0.037 C 
ATOM    133  H   UNL     1     147.091 166.498 189.534  0.00  0.00    +0.052 HD
ATOM    134  H   UNL     1     146.412 165.950 191.085  0.00  0.00    +0.052 HD
ATOM    135  H   UNL     1     145.315 166.499 189.798  0.00  0.00    +0.052 HD
ENDBRANCH 131 132
ENDBRANCH  31 131
BRANCH  29 136
ATOM    136  O   UNL     1     146.396 171.555 191.013  0.00  0.00    -0.376 OA
BRANCH 136 137
ATOM    137  C   UNL     1     146.800 172.652 191.821  0.00  0.00    +0.037 C 
ATOM    138  H   UNL     1     146.393 172.553 192.834  0.00  0.00    +0.052 HD
ATOM    139  H   UNL     1     147.894 172.644 191.883  0.00  0.00    +0.052 HD
ATOM    140  H   UNL     1     146.484 173.597 191.373  0.00  0.00    +0.052 HD
ENDBRANCH 136 137
ENDBRANCH  29 136
BRANCH  16 141
ATOM    141  O   UNL     1     152.974 160.551 188.214  0.00  0.00    -0.379 OA
BRANCH 141 142
ATOM    142  C   UNL     1     153.421 159.203 188.254  0.00  0.00    +0.037 C 
ATOM    143  H   UNL     1     152.839 158.675 189.017  0.00  0.00    +0.052 HD
ATOM    144  H   UNL     1     154.481 159.137 188.518  0.00  0.00    +0.052 HD
ATOM    145  H   UNL     1     153.241 158.718 187.286  0.00  0.00    +0.052 HD
ENDBRANCH 141 142
ENDBRANCH  16 141
BRANCH   6 146
ATOM    146  O   UNL     1     149.903 165.918 185.984  0.00  0.00    -0.379 OA
BRANCH 146 147
ATOM    147  C   UNL     1     150.784 166.617 186.859  0.00  0.00    +0.037 C 
ATOM    148  H   UNL     1     150.681 167.696 186.714  0.00  0.00    +0.052 HD
ATOM    149  H   UNL     1     151.826 166.321 186.688  0.00  0.00    +0.052 HD
ATOM    150  H   UNL     1     150.518 166.372 187.892  0.00  0.00    +0.052 HD
ENDBRANCH 146 147
ENDBRANCH   6 146
BRANCH   4 151
ATOM    151  O   UNL     1     148.149 168.218 185.204  0.00  0.00    -0.376 OA
BRANCH 151 152
ATOM    152  C   UNL     1     147.810 169.588 185.394  0.00  0.00    +0.037 C 
ATOM    153  H   UNL     1     147.257 169.722 186.329  0.00  0.00    +0.052 HD
ATOM    154  H   UNL     1     148.736 170.158 185.460  0.00  0.00    +0.052 HD
ATOM    155  H   UNL     1     147.221 169.966 184.554  0.00  0.00    +0.052 HD
ENDBRANCH 151 152
ENDBRANCH   4 151
TORSDOF 33
ENDMDL
MODEL 2
REMARK VINA RESULT:      -5.3      2.316      3.475
REMARK  Name = Reidispongiolide A_conf3
REMARK  33 active torsions:
REMARK  status: ('A' for Active; 'I' for Inactive)
REMARK    1  A    between atoms: C_1  and  C_2
REMARK    2  A    between atoms: C_5  and  O_67
REMARK    3  A    between atoms: C_7  and  O_65
REMARK    4  A    between atoms: C_8  and  C_64
REMARK    5  A    between atoms: C_17  and  O_62
REMARK    6  A    between atoms: C_19  and  C_61
REMARK    7  A    between atoms: C_26  and  C_38
REMARK    8  A    between atoms: C_27  and  C_37
REMARK    9  A    between atoms: C_30  and  O_35
REMARK   10  A    between atoms: C_32  and  O_33
REMARK   11  A    between atoms: O_33  and  C_34
REMARK   12  A    between atoms: O_35  and  C_36
REMARK   13  A    between atoms: C_38  and  C_39
REMARK   14  A    between atoms: C_38  and  C_40
REMARK   15  A    between atoms: C_40  and  C_41
REMARK   16  A    between atoms: C_40  and  O_59
REMARK   17  A    between atoms: C_41  and  C_42
REMARK   18  A    between atoms: C_41  and  C_43
REMARK   19  A    between atoms: C_43  and  C_44
REMARK   20  A    between atoms: C_44  and  C_45
REMARK   21  A    between atoms: C_45  and  C_47
REMARK   22  A    between atoms: C_47  and  C_48
REMARK   23  A    between atoms: C_47  and  C_49
REMARK   24  A    between atoms: C_49  and  C_50
REMARK   25  A    between atoms: C_49  and  O_57
REMARK   26  A    between atoms: C_50  and  C_51
REMARK   27  A    between atoms: C_52  and  N_53
REMARK   28  A    between atoms: N_53  and  C_54
REMARK   29  A    between atoms: O_57  and  C_58
REMARK   30  A    between atoms: O_59  and  C_60
REMARK   31  A    between atoms: O_62  and  C_63
REMARK   32  A    between atoms: O_65  and  C_66
REMARK   33  A    between atoms: O_67  and  C_68
REMARK                            x       y       z     vdW  Elec       q    Type
REMARK                         _______ _______ _______ _____ _____    ______ ____
ROOT
ATOM      1  C   UNL     1     143.782 169.282 187.048  0.00  0.00    +0.001 C 
ATOM      2  C   UNL     1     144.876 168.569 186.261  0.00  0.00    -0.080 C 
ATOM      3  C   UNL     1     145.511 169.051 185.178  0.00  0.00    -0.059 C 
ATOM      4  C   UNL     1     146.550 168.413 184.291  0.00  0.00    +0.079 C 
ATOM      5  C   UNL     1     146.919 166.935 184.521  0.00  0.00    +0.004 C 
ATOM      6  C   UNL     1     147.788 166.613 185.758  0.00  0.00    +0.067 C 
ATOM      7  C   UNL     1     147.720 165.113 186.178  0.00  0.00    +0.020 C 
ATOM      8  C   UNL     1     148.161 164.118 185.054  0.00  0.00    +0.112 C 
ATOM      9  C   UNL     1     149.675 163.825 184.972  0.00  0.00    +0.006 C 
ATOM     10  C   UNL     1     150.108 162.665 185.828  0.00  0.00    -0.057 C 
ATOM     11  C   UNL     1     149.189 161.804 186.298  0.00  0.00    +0.022 C 
ATOM     12  C   UNL     1     147.758 161.892 185.959  0.00  0.00    +0.332 C 
ATOM     13  O   UNL     1     146.961 161.054 186.361  0.00  0.00    -0.246 OA
ATOM     14  O   UNL     1     147.393 162.889 185.120  0.00  0.00    -0.458 OA
ATOM     15  C   UNL     1     151.599 162.379 185.953  0.00  0.00    -0.004 C 
ATOM     16  C   UNL     1     152.303 162.216 187.334  0.00  0.00    +0.066 C 
ATOM     17  C   UNL     1     152.845 163.535 187.946  0.00  0.00    -0.005 C 
ATOM     18  C   UNL     1     151.987 164.314 188.927  0.00  0.00    -0.070 C 
ATOM     19  C   UNL     1     152.504 164.729 190.106  0.00  0.00    -0.062 C 
ATOM     20  C   UNL     1     151.800 165.506 191.105  0.00  0.00    -0.055 C 
ATOM     21  C   UNL     1     151.306 166.732 190.873  0.00  0.00    +0.023 C 
ATOM     22  C   UNL     1     150.466 167.375 191.895  0.00  0.00    +0.332 C 
ATOM     23  O   UNL     1     150.493 167.123 193.091  0.00  0.00    -0.246 OA
ATOM     24  O   UNL     1     149.611 168.213 191.263  0.00  0.00    -0.457 OA
ATOM     25  C   UNL     1     148.405 168.554 191.983  0.00  0.00    +0.114 C 
ATOM     26  C   UNL     1     148.136 170.092 191.927  0.00  0.00    +0.012 C 
ATOM     27  C   UNL     1     147.593 170.632 190.624  0.00  0.00    -0.079 C 
ATOM     28  C   UNL     1     146.399 171.252 190.526  0.00  0.00    -0.059 C 
ATOM     29  C   UNL     1     145.842 171.856 189.268  0.00  0.00    +0.079 C 
ATOM     30  C   UNL     1     145.526 170.869 188.127  0.00  0.00    +0.004 C 
ATOM     31  C   UNL     1     144.284 169.984 188.350  0.00  0.00    +0.067 C 
ATOM     32  H   UNL     1     143.086 168.485 187.354  0.00  0.00    +0.037 HD
ATOM     33  H   UNL     1     145.118 167.581 186.642  0.00  0.00    +0.057 HD
ATOM     34  H   UNL     1     145.258 170.054 184.842  0.00  0.00    +0.059 HD
ATOM     35  H   UNL     1     146.111 168.466 183.283  0.00  0.00    +0.064 HD
ATOM     36  H   UNL     1     147.471 166.611 183.633  0.00  0.00    +0.032 HD
ATOM     37  H   UNL     1     145.988 166.360 184.539  0.00  0.00    +0.032 HD
ATOM     38  H   UNL     1     147.444 167.218 186.605  0.00  0.00    +0.060 HD
ATOM     39  H   UNL     1     148.415 164.983 187.010  0.00  0.00    +0.036 HD
ATOM     40  H   UNL     1     147.882 164.547 184.086  0.00  0.00    +0.074 HD
ATOM     41  H   UNL     1     150.258 164.718 185.216  0.00  0.00    +0.035 HD
ATOM     42  H   UNL     1     149.921 163.564 183.933  0.00  0.00    +0.035 HD
ATOM     43  H   UNL     1     149.459 160.919 186.867  0.00  0.00    +0.069 HD
ATOM     44  H   UNL     1     152.163 163.106 185.350  0.00  0.00    +0.034 HD
ATOM     45  H   UNL     1     151.746 161.421 185.425  0.00  0.00    +0.034 HD
ATOM     46  H   UNL     1     153.194 161.614 187.098  0.00  0.00    +0.060 HD
ATOM     47  H   UNL     1     153.145 164.215 187.135  0.00  0.00    +0.034 HD
ATOM     48  H   UNL     1     153.782 163.272 188.455  0.00  0.00    +0.034 HD
ATOM     49  H   UNL     1     153.522 164.453 190.384  0.00  0.00    +0.062 HD
ATOM     50  H   UNL     1     151.674 165.031 192.077  0.00  0.00    +0.062 HD
ATOM     51  H   UNL     1     151.409 167.238 189.923  0.00  0.00    +0.069 HD
ATOM     52  H   UNL     1     148.560 168.359 193.050  0.00  0.00    +0.074 HD
ATOM     53  H   UNL     1     147.387 170.283 192.709  0.00  0.00    +0.038 HD
ATOM     54  H   UNL     1     148.224 170.527 189.740  0.00  0.00    +0.057 HD
ATOM     55  H   UNL     1     145.793 171.370 191.426  0.00  0.00    +0.059 HD
ATOM     56  H   UNL     1     146.579 172.581 188.892  0.00  0.00    +0.064 HD
ATOM     57  H   UNL     1     146.412 170.250 187.939  0.00  0.00    +0.032 HD
ATOM     58  H   UNL     1     145.353 171.480 187.232  0.00  0.00    +0.032 HD
ATOM     59  H   UNL     1     143.461 170.610 188.721  0.00  0.00    +0.060 HD
ENDROOT
BRANCH   1  60
ATOM     60  C   UNL     1     142.948 170.255 186.200  0.00  0.00    -0.057 C 
ATOM     61  H   UNL     1     143.485 170.520 185.283  0.00  0.00    +0.024 HD
ATOM     62  H   UNL     1     142.754 171.184 186.745  0.00  0.00    +0.024 HD
ATOM     63  H   UNL     1     141.985 169.831 185.903  0.00  0.00    +0.024 HD
ENDBRANCH   1  60
BRANCH  26  64
ATOM     64  C   UNL     1     149.403 170.870 192.308  0.00  0.00    -0.056 C 
ATOM     65  H   UNL     1     150.298 170.417 191.862  0.00  0.00    +0.024 HD
ATOM     66  H   UNL     1     149.540 170.892 193.392  0.00  0.00    +0.024 HD
ATOM     67  H   UNL     1     149.335 171.907 191.968  0.00  0.00    +0.024 HD
ENDBRANCH  26  64
BRANCH  18  68
ATOM     68  C   UNL     1     150.583 164.593 188.485  0.00  0.00    -0.043 C 
ATOM     69  H   UNL     1     150.012 165.054 189.294  0.00  0.00    +0.027 HD
ATOM     70  H   UNL     1     150.506 165.278 187.639  0.00  0.00    +0.027 HD
ATOM     71  H   UNL     1     150.118 163.652 188.188  0.00  0.00    +0.027 HD
ENDBRANCH  18  68
BRANCH   7  72
ATOM     72  C   UNL     1     146.331 164.796 186.749  0.00  0.00    -0.057 C 
ATOM     73  H   UNL     1     146.390 163.996 187.488  0.00  0.00    +0.023 HD
ATOM     74  H   UNL     1     145.871 165.666 187.225  0.00  0.00    +0.023 HD
ATOM     75  H   UNL     1     145.661 164.444 185.961  0.00  0.00    +0.023 HD
ENDBRANCH   7  72
BRANCH  25  76
ATOM     76  C   UNL     1     147.231 167.645 191.477  0.00  0.00    +0.020 C 
ATOM     77  H   UNL     1     146.365 168.301 191.337  0.00  0.00    +0.036 HD
BRANCH  76  78
ATOM     78  C   UNL     1     147.555 167.016 190.116  0.00  0.00    -0.057 C 
ATOM     79  H   UNL     1     147.899 167.751 189.384  0.00  0.00    +0.023 HD
ATOM     80  H   UNL     1     148.311 166.237 190.223  0.00  0.00    +0.023 HD
ATOM     81  H   UNL     1     146.688 166.521 189.676  0.00  0.00    +0.023 HD
ENDBRANCH  76  78
BRANCH  76  82
ATOM     82  C   UNL     1     146.840 166.610 192.592  0.00  0.00    +0.067 C 
ATOM     83  H   UNL     1     147.589 165.811 192.599  0.00  0.00    +0.060 HD
BRANCH  82  84
ATOM     84  C   UNL     1     145.477 165.857 192.520  0.00  0.00    -0.017 C 
ATOM     85  H   UNL     1     145.591 164.912 193.063  0.00  0.00    +0.032 HD
BRANCH  84  86
ATOM     86  C   UNL     1     144.419 166.654 193.307  0.00  0.00    -0.060 C 
ATOM     87  H   UNL     1     144.330 166.262 194.326  0.00  0.00    +0.023 HD
ATOM     88  H   UNL     1     143.430 166.570 192.841  0.00  0.00    +0.023 HD
ATOM     89  H   UNL     1     144.671 167.720 193.374  0.00  0.00    +0.023 HD
ENDBRANCH  84  86
BRANCH  84  90
ATOM     90  C   UNL     1     144.895 165.502 191.131  0.00  0.00    -0.041 C 
ATOM     91  H   UNL     1     145.568 164.774 190.656  0.00  0.00    +0.027 HD
ATOM     92  H   UNL     1     144.952 166.375 190.478  0.00  0.00    +0.027 HD
BRANCH  90  93
ATOM     93  C   UNL     1     143.471 164.951 191.087  0.00  0.00    +0.007 C 
ATOM     94  H   UNL     1     142.885 165.271 191.952  0.00  0.00    +0.034 HD
ATOM     95  H   UNL     1     143.487 163.855 191.083  0.00  0.00    +0.034 HD
BRANCH  93  96
ATOM     96  C   UNL     1     142.729 165.386 189.828  0.00  0.00    +0.139 C 
ATOM     97  O   UNL     1     141.673 166.019 189.930  0.00  0.00    -0.297 OA
BRANCH  96  98
ATOM     98  C   UNL     1     143.310 164.990 188.465  0.00  0.00    +0.041 C 
ATOM     99  H   UNL     1     144.388 165.142 188.558  0.00  0.00    +0.040 HD
BRANCH  98 100
ATOM    100  C   UNL     1     142.835 165.918 187.344  0.00  0.00    -0.053 C 
ATOM    101  H   UNL     1     141.858 166.361 187.559  0.00  0.00    +0.024 HD
ATOM    102  H   UNL     1     143.539 166.747 187.209  0.00  0.00    +0.024 HD
ATOM    103  H   UNL     1     142.781 165.385 186.387  0.00  0.00    +0.024 HD
ENDBRANCH  98 100
BRANCH  98 104
ATOM    104  C   UNL     1     143.098 163.489 188.148  0.00  0.00    +0.071 C 
ATOM    105  H   UNL     1     143.042 163.329 187.063  0.00  0.00    +0.061 HD
BRANCH 104 106
ATOM    106  C   UNL     1     144.157 162.515 188.720  0.00  0.00    -0.006 C 
ATOM    107  H   UNL     1     144.922 162.314 187.959  0.00  0.00    +0.033 HD
ATOM    108  H   UNL     1     144.698 163.038 189.519  0.00  0.00    +0.033 HD
BRANCH 106 109
ATOM    109  C   UNL     1     143.613 161.238 189.303  0.00  0.00    -0.067 C 
ATOM    110  C   UNL     1     144.367 160.148 189.500  0.00  0.00    -0.005 C 
ATOM    111  H   UNL     1     142.558 161.271 189.566  0.00  0.00    +0.059 HD
ATOM    112  H   UNL     1     145.427 160.195 189.259  0.00  0.00    +0.078 HD
BRANCH 110 113
ATOM    113  N   UNL     1     143.950 158.922 189.993  0.00  0.00    -0.284 N 
ATOM    114  C   UNL     1     144.794 157.888 190.395  0.00  0.00    +0.206 C 
ATOM    115  O   UNL     1     144.431 156.798 190.831  0.00  0.00    -0.279 OA
ATOM    116  H   UNL     1     145.862 158.118 190.307  0.00  0.00    +0.126 HD
BRANCH 113 117
ATOM    117  C   UNL     1     142.512 158.714 190.140  0.00  0.00    +0.007 C 
ATOM    118  H   UNL     1     142.351 157.995 190.952  0.00  0.00    +0.043 HD
ATOM    119  H   UNL     1     142.056 158.321 189.228  0.00  0.00    +0.043 HD
ATOM    120  H   UNL     1     142.029 159.665 190.390  0.00  0.00    +0.043 HD
ENDBRANCH 113 117
ENDBRANCH 110 113
ENDBRANCH 106 109
ENDBRANCH 104 106
BRANCH 104 121
ATOM    121  O   UNL     1     141.844 163.070 188.736  0.00  0.00    -0.379 OA
BRANCH 121 122
ATOM    122  C   UNL     1     140.753 163.096 187.819  0.00  0.00    +0.037 C 
ATOM    123  H   UNL     1     140.901 162.300 187.082  0.00  0.00    +0.052 HD
ATOM    124  H   UNL     1     139.807 162.919 188.333  0.00  0.00    +0.052 HD
ATOM    125  H   UNL     1     140.718 164.056 187.295  0.00  0.00    +0.052 HD
ENDBRANCH 121 122
ENDBRANCH 104 121
ENDBRANCH  98 104
ENDBRANCH  96  98
ENDBRANCH  93  96
ENDBRANCH  90  93
ENDBRANCH  84  90
ENDBRANCH  82  84
BRANCH  82 126
ATOM    126  O   UNL     1     146.920 167.276 193.869  0.00  0.00    -0.379 OA
BRANCH 126 127
ATOM    127  C   UNL     1     147.555 166.493 194.875  0.00  0.00    +0.037 C 
ATOM    128  H   UNL     1     148.356 167.066 195.354  0.00  0.00    +0.052 HD
ATOM    129  H   UNL     1     146.829 166.157 195.622  0.00  0.00    +0.052 HD
ATOM    130  H   UNL     1     147.999 165.611 194.399  0.00  0.00    +0.052 HD
ENDBRANCH 126 127
ENDBRANCH  82 126
ENDBRANCH  76  82
ENDBRANCH  25  76
BRANCH  31 131
ATOM    131  O   UNL     1     144.595 168.973 189.325  0.00  0.00    -0.379 OA
BRANCH 131 132
ATOM    132  C   UNL     1     143.617 168.907 190.359  0.00  0.00    +0.037 C 
ATOM    133  H   UNL     1     142.609 168.909 189.932  0.00  0.00    +0.052 HD
ATOM    134  H   UNL     1     143.764 167.977 190.916  0.00  0.00    +0.052 HD
ATOM    135  H   UNL     1     143.736 169.750 191.050  0.00  0.00    +0.052 HD
ENDBRANCH 131 132
ENDBRANCH  31 131
BRANCH  29 136
ATOM    136  O   UNL     1     144.629 172.539 189.633  0.00  0.00    -0.376 OA
BRANCH 136 137
ATOM    137  C   UNL     1     144.359 172.489 191.028  0.00  0.00    +0.037 C 
ATOM    138  H   UNL     1     144.769 171.571 191.466  0.00  0.00    +0.052 HD
ATOM    139  H   UNL     1     144.848 173.348 191.500  0.00  0.00    +0.052 HD
ATOM    140  H   UNL     1     143.284 172.555 191.215  0.00  0.00    +0.052 HD
ENDBRANCH 136 137
ENDBRANCH  29 136
BRANCH  16 141
ATOM    141  O   UNL     1     151.496 161.446 188.228  0.00  0.00    -0.379 OA
BRANCH 141 142
ATOM    142  C   UNL     1     151.966 160.121 188.432  0.00  0.00    +0.037 C 
ATOM    143  H   UNL     1     153.054 160.123 188.301  0.00  0.00    +0.052 HD
ATOM    144  H   UNL     1     151.531 159.422 187.709  0.00  0.00    +0.052 HD
ATOM    145  H   UNL     1     151.741 159.795 189.455  0.00  0.00    +0.052 HD
ENDBRANCH 141 142
ENDBRANCH  16 141
BRANCH   6 146
ATOM    146  O   UNL     1     149.154 166.930 185.461  0.00  0.00    -0.379 OA
BRANCH 146 147
ATOM    147  C   UNL     1     149.833 167.510 186.571  0.00  0.00    +0.037 C 
ATOM    148  H   UNL     1     149.427 168.504 186.782  0.00  0.00    +0.052 HD
ATOM    149  H   UNL     1     150.910 167.586 186.379  0.00  0.00    +0.052 HD
ATOM    150  H   UNL     1     149.679 166.872 187.447  0.00  0.00    +0.052 HD
ENDBRANCH 146 147
ENDBRANCH   6 146
BRANCH   4 151
ATOM    151  O   UNL     1     147.683 169.285 184.338  0.00  0.00    -0.376 OA
BRANCH 151 152
ATOM    152  C   UNL     1     147.349 170.626 184.683  0.00  0.00    +0.037 C 
ATOM    153  H   UNL     1     147.573 171.305 183.853  0.00  0.00    +0.052 HD
ATOM    154  H   UNL     1     146.277 170.666 184.876  0.00  0.00    +0.052 HD
ATOM    155  H   UNL     1     147.883 170.945 185.581  0.00  0.00    +0.052 HD
ENDBRANCH 151 152
ENDBRANCH   4 151
TORSDOF 33
ENDMDL
MODEL 3
REMARK VINA RESULT:      -5.3      2.775      7.905
REMARK  Name = Reidispongiolide A_conf3
REMARK  33 active torsions:
REMARK  status: ('A' for Active; 'I' for Inactive)
REMARK    1  A    between atoms: C_1  and  C_2
REMARK    2  A    between atoms: C_5  and  O_67
REMARK    3  A    between atoms: C_7  and  O_65
REMARK    4  A    between atoms: C_8  and  C_64
REMARK    5  A    between atoms: C_17  and  O_62
REMARK    6  A    between atoms: C_19  and  C_61
REMARK    7  A    between atoms: C_26  and  C_38
REMARK    8  A    between atoms: C_27  and  C_37
REMARK    9  A    between atoms: C_30  and  O_35
REMARK   10  A    between atoms: C_32  and  O_33
REMARK   11  A    between atoms: O_33  and  C_34
REMARK   12  A    between atoms: O_35  and  C_36
REMARK   13  A    between atoms: C_38  and  C_39
REMARK   14  A    between atoms: C_38  and  C_40
REMARK   15  A    between atoms: C_40  and  C_41
REMARK   16  A    between atoms: C_40  and  O_59
REMARK   17  A    between atoms: C_41  and  C_42
REMARK   18  A    between atoms: C_41  and  C_43
REMARK   19  A    between atoms: C_43  and  C_44
REMARK   20  A    between atoms: C_44  and  C_45
REMARK   21  A    between atoms: C_45  and  C_47
REMARK   22  A    between atoms: C_47  and  C_48
REMARK   23  A    between atoms: C_47  and  C_49
REMARK   24  A    between atoms: C_49  and  C_50
REMARK   25  A    between atoms: C_49  and  O_57
REMARK   26  A    between atoms: C_50  and  C_51
REMARK   27  A    between atoms: C_52  and  N_53
REMARK   28  A    between atoms: N_53  and  C_54
REMARK   29  A    between atoms: O_57  and  C_58
REMARK   30  A    between atoms: O_59  and  C_60
REMARK   31  A    between atoms: O_62  and  C_63
REMARK   32  A    between atoms: O_65  and  C_66
REMARK   33  A    between atoms: O_67  and  C_68
REMARK                            x       y       z     vdW  Elec       q    Type
REMARK                         _______ _______ _______ _____ _____    ______ ____
ROOT
ATOM      1  C   UNL     1     152.955 166.941 187.370  0.00  0.00    +0.001 C 
ATOM      2  C   UNL     1     151.638 166.351 186.877  0.00  0.00    -0.080 C 
ATOM      3  C   UNL     1     151.467 165.116 186.370  0.00  0.00    -0.059 C 
ATOM      4  C   UNL     1     150.238 164.457 185.798  0.00  0.00    +0.079 C 
ATOM      5  C   UNL     1     148.958 165.297 185.621  0.00  0.00    +0.004 C 
ATOM      6  C   UNL     1     148.166 165.645 186.902  0.00  0.00    +0.067 C 
ATOM      7  C   UNL     1     147.192 166.849 186.709  0.00  0.00    +0.020 C 
ATOM      8  C   UNL     1     146.135 166.635 185.576  0.00  0.00    +0.112 C 
ATOM      9  C   UNL     1     144.839 165.906 185.995  0.00  0.00    +0.006 C 
ATOM     10  C   UNL     1     143.762 166.835 186.489  0.00  0.00    -0.057 C 
ATOM     11  C   UNL     1     143.847 168.151 186.230  0.00  0.00    +0.022 C 
ATOM     12  C   UNL     1     144.921 168.741 185.413  0.00  0.00    +0.332 C 
ATOM     13  O   UNL     1     144.931 169.938 185.151  0.00  0.00    -0.246 OA
ATOM     14  O   UNL     1     145.837 167.886 184.904  0.00  0.00    -0.458 OA
ATOM     15  C   UNL     1     142.497 166.223 187.077  0.00  0.00    -0.004 C 
ATOM     16  C   UNL     1     141.941 166.641 188.471  0.00  0.00    +0.066 C 
ATOM     17  C   UNL     1     142.493 165.817 189.665  0.00  0.00    -0.005 C 
ATOM     18  C   UNL     1     143.695 166.332 190.438  0.00  0.00    -0.070 C 
ATOM     19  C   UNL     1     143.664 166.389 191.788  0.00  0.00    -0.062 C 
ATOM     20  C   UNL     1     144.754 166.825 192.636  0.00  0.00    -0.055 C 
ATOM     21  C   UNL     1     145.949 166.216 192.674  0.00  0.00    +0.023 C 
ATOM     22  C   UNL     1     147.045 166.827 193.441  0.00  0.00    +0.332 C 
ATOM     23  O   UNL     1     146.905 167.595 194.382  0.00  0.00    -0.246 OA
ATOM     24  O   UNL     1     148.213 166.461 192.862  0.00  0.00    -0.457 OA
ATOM     25  C   UNL     1     149.349 167.316 193.123  0.00  0.00    +0.114 C 
ATOM     26  C   UNL     1     150.606 166.473 193.508  0.00  0.00    +0.012 C 
ATOM     27  C   UNL     1     151.312 165.765 192.374  0.00  0.00    -0.079 C 
ATOM     28  C   UNL     1     152.597 166.010 192.042  0.00  0.00    -0.059 C 
ATOM     29  C   UNL     1     153.360 165.293 190.963  0.00  0.00    +0.079 C 
ATOM     30  C   UNL     1     152.850 165.501 189.524  0.00  0.00    +0.004 C 
ATOM     31  C   UNL     1     153.139 166.889 188.919  0.00  0.00    +0.067 C 
ATOM     32  H   UNL     1     152.916 168.003 187.080  0.00  0.00    +0.037 HD
ATOM     33  H   UNL     1     150.796 167.032 186.951  0.00  0.00    +0.057 HD
ATOM     34  H   UNL     1     152.330 164.455 186.336  0.00  0.00    +0.059 HD
ATOM     35  H   UNL     1     150.545 164.151 184.785  0.00  0.00    +0.064 HD
ATOM     36  H   UNL     1     148.296 164.720 184.967  0.00  0.00    +0.032 HD
ATOM     37  H   UNL     1     149.229 166.203 185.073  0.00  0.00    +0.032 HD
ATOM     38  H   UNL     1     148.871 165.904 187.700  0.00  0.00    +0.060 HD
ATOM     39  H   UNL     1     146.640 166.965 187.644  0.00  0.00    +0.036 HD
ATOM     40  H   UNL     1     146.589 166.020 184.792  0.00  0.00    +0.074 HD
ATOM     41  H   UNL     1     145.051 165.136 186.742  0.00  0.00    +0.035 HD
ATOM     42  H   UNL     1     144.435 165.387 185.115  0.00  0.00    +0.035 HD
ATOM     43  H   UNL     1     143.064 168.850 186.510  0.00  0.00    +0.069 HD
ATOM     44  H   UNL     1     142.569 165.125 187.038  0.00  0.00    +0.034 HD
ATOM     45  H   UNL     1     141.703 166.466 186.350  0.00  0.00    +0.034 HD
ATOM     46  H   UNL     1     140.872 166.385 188.408  0.00  0.00    +0.060 HD
ATOM     47  H   UNL     1     142.713 164.793 189.328  0.00  0.00    +0.034 HD
ATOM     48  H   UNL     1     141.660 165.710 190.372  0.00  0.00    +0.034 HD
ATOM     49  H   UNL     1     142.754 166.122 192.327  0.00  0.00    +0.062 HD
ATOM     50  H   UNL     1     144.560 167.704 193.249  0.00  0.00    +0.062 HD
ATOM     51  H   UNL     1     146.183 165.342 192.082  0.00  0.00    +0.069 HD
ATOM     52  H   UNL     1     149.150 167.906 194.025  0.00  0.00    +0.074 HD
ATOM     53  H   UNL     1     151.312 167.191 193.949  0.00  0.00    +0.038 HD
ATOM     54  H   UNL     1     150.747 165.007 191.831  0.00  0.00    +0.057 HD
ATOM     55  H   UNL     1     153.155 166.754 192.613  0.00  0.00    +0.059 HD
ATOM     56  H   UNL     1     153.315 164.216 191.184  0.00  0.00    +0.064 HD
ATOM     57  H   UNL     1     151.776 165.283 189.492  0.00  0.00    +0.032 HD
ATOM     58  H   UNL     1     153.358 164.749 188.906  0.00  0.00    +0.032 HD
ATOM     59  H   UNL     1     154.182 167.162 189.133  0.00  0.00    +0.060 HD
ENDROOT
BRANCH   1  60
ATOM     60  C   UNL     1     154.190 166.365 186.660  0.00  0.00    -0.057 C 
ATOM     61  H   UNL     1     154.445 166.970 185.784  0.00  0.00    +0.024 HD
ATOM     62  H   UNL     1     154.001 165.346 186.309  0.00  0.00    +0.024 HD
ATOM     63  H   UNL     1     155.071 166.340 187.308  0.00  0.00    +0.024 HD
ENDBRANCH   1  60
BRANCH  26  64
ATOM     64  C   UNL     1     150.253 165.452 194.599  0.00  0.00    -0.056 C 
ATOM     65  H   UNL     1     149.531 165.868 195.314  0.00  0.00    +0.024 HD
ATOM     66  H   UNL     1     151.142 165.147 195.155  0.00  0.00    +0.024 HD
ATOM     67  H   UNL     1     149.820 164.551 194.157  0.00  0.00    +0.024 HD
ENDBRANCH  26  64
BRANCH  18  68
ATOM     68  C   UNL     1     144.878 166.734 189.610  0.00  0.00    -0.043 C 
ATOM     69  H   UNL     1     145.776 166.789 190.229  0.00  0.00    +0.027 HD
ATOM     70  H   UNL     1     145.117 166.041 188.802  0.00  0.00    +0.027 HD
ATOM     71  H   UNL     1     144.673 167.705 189.159  0.00  0.00    +0.027 HD
ENDBRANCH  18  68
BRANCH   7  72
ATOM     72  C   UNL     1     147.997 168.145 186.543  0.00  0.00    -0.057 C 
ATOM     73  H   UNL     1     147.800 168.831 187.368  0.00  0.00    +0.023 HD
ATOM     74  H   UNL     1     149.074 167.962 186.501  0.00  0.00    +0.023 HD
ATOM     75  H   UNL     1     147.704 168.666 185.627  0.00  0.00    +0.023 HD
ENDBRANCH   7  72
BRANCH  25  76
ATOM     76  C   UNL     1     149.539 168.300 191.916  0.00  0.00    +0.020 C 
ATOM     77  H   UNL     1     150.332 167.876 191.289  0.00  0.00    +0.036 HD
BRANCH  76  78
ATOM     78  C   UNL     1     148.272 168.386 191.057  0.00  0.00    -0.057 C 
ATOM     79  H   UNL     1     147.481 167.719 191.406  0.00  0.00    +0.023 HD
ATOM     80  H   UNL     1     147.892 169.409 191.035  0.00  0.00    +0.023 HD
ATOM     81  H   UNL     1     148.463 168.125 190.016  0.00  0.00    +0.023 HD
ENDBRANCH  76  78
BRANCH  76  82
ATOM     82  C   UNL     1     150.066 169.685 192.437  0.00  0.00    +0.067 C 
ATOM     83  H   UNL     1     150.290 169.589 193.505  0.00  0.00    +0.060 HD
BRANCH  82  84
ATOM     84  C   UNL     1     149.161 170.952 192.348  0.00  0.00    -0.017 C 
ATOM     85  H   UNL     1     148.138 170.646 192.594  0.00  0.00    +0.032 HD
BRANCH  84  86
ATOM     86  C   UNL     1     149.569 171.941 193.456  0.00  0.00    -0.060 C 
ATOM     87  H   UNL     1     150.228 172.715 193.049  0.00  0.00    +0.023 HD
ATOM     88  H   UNL     1     150.121 171.434 194.257  0.00  0.00    +0.023 HD
ATOM     89  H   UNL     1     148.700 172.436 193.907  0.00  0.00    +0.023 HD
ENDBRANCH  84  86
BRANCH  84  90
ATOM     90  C   UNL     1     149.082 171.717 191.005  0.00  0.00    -0.041 C 
ATOM     91  H   UNL     1     148.768 171.009 190.227  0.00  0.00    +0.027 HD
ATOM     92  H   UNL     1     150.087 172.016 190.697  0.00  0.00    +0.027 HD
BRANCH  90  93
ATOM     93  C   UNL     1     148.170 172.941 190.949  0.00  0.00    +0.007 C 
ATOM     94  H   UNL     1     148.115 173.360 189.941  0.00  0.00    +0.034 HD
ATOM     95  H   UNL     1     148.546 173.727 191.615  0.00  0.00    +0.034 HD
BRANCH  93  96
ATOM     96  C   UNL     1     146.751 172.618 191.403  0.00  0.00    +0.139 C 
ATOM     97  O   UNL     1     146.337 173.067 192.477  0.00  0.00    -0.297 OA
BRANCH  96  98
ATOM     98  C   UNL     1     145.889 171.711 190.516  0.00  0.00    +0.041 C 
ATOM     99  H   UNL     1     146.314 170.711 190.631  0.00  0.00    +0.040 HD
BRANCH  98 100
ATOM    100  C   UNL     1     146.013 172.068 189.033  0.00  0.00    -0.053 C 
ATOM    101  H   UNL     1     146.473 173.050 188.880  0.00  0.00    +0.024 HD
ATOM    102  H   UNL     1     146.642 171.337 188.513  0.00  0.00    +0.024 HD
ATOM    103  H   UNL     1     145.033 172.054 188.540  0.00  0.00    +0.024 HD
ENDBRANCH  98 100
BRANCH  98 104
ATOM    104  C   UNL     1     144.422 171.631 191.005  0.00  0.00    +0.071 C 
ATOM    105  H   UNL     1     144.338 172.011 192.032  0.00  0.00    +0.061 HD
BRANCH 104 106
ATOM    106  C   UNL     1     143.372 172.367 190.137  0.00  0.00    -0.006 C 
ATOM    107  H   UNL     1     143.746 172.463 189.110  0.00  0.00    +0.033 HD
ATOM    108  H   UNL     1     142.493 171.715 190.048  0.00  0.00    +0.033 HD
BRANCH 106 109
ATOM    109  C   UNL     1     142.900 173.691 190.677  0.00  0.00    -0.067 C 
ATOM    110  C   UNL     1     143.038 174.045 191.962  0.00  0.00    -0.005 C 
ATOM    111  H   UNL     1     142.449 174.349 189.938  0.00  0.00    +0.059 HD
ATOM    112  H   UNL     1     143.542 173.360 192.641  0.00  0.00    +0.078 HD
BRANCH 110 113
ATOM    113  N   UNL     1     142.604 175.219 192.556  0.00  0.00    -0.284 N 
ATOM    114  C   UNL     1     142.339 176.411 191.884  0.00  0.00    +0.206 C 
ATOM    115  O   UNL     1     141.956 177.455 192.405  0.00  0.00    -0.279 OA
ATOM    116  H   UNL     1     142.489 176.359 190.799  0.00  0.00    +0.126 HD
BRANCH 113 117
ATOM    117  C   UNL     1     142.367 175.191 193.996  0.00  0.00    +0.007 C 
ATOM    118  H   UNL     1     142.184 174.151 194.293  0.00  0.00    +0.043 HD
ATOM    119  H   UNL     1     141.504 175.795 194.286  0.00  0.00    +0.043 HD
ATOM    120  H   UNL     1     143.252 175.572 194.520  0.00  0.00    +0.043 HD
ENDBRANCH 113 117
ENDBRANCH 110 113
ENDBRANCH 106 109
ENDBRANCH 104 106
BRANCH 104 121
ATOM    121  O   UNL     1     144.011 170.244 190.998  0.00  0.00    -0.379 OA
BRANCH 121 122
ATOM    122  C   UNL     1     142.650 170.056 191.381  0.00  0.00    +0.037 C 
ATOM    123  H   UNL     1     142.131 169.535 190.570  0.00  0.00    +0.052 HD
ATOM    124  H   UNL     1     142.580 169.448 192.284  0.00  0.00    +0.052 HD
ATOM    125  H   UNL     1     142.163 171.022 191.544  0.00  0.00    +0.052 HD
ENDBRANCH 121 122
ENDBRANCH 104 121
ENDBRANCH  98 104
ENDBRANCH  96  98
ENDBRANCH  93  96
ENDBRANCH  90  93
ENDBRANCH  84  90
ENDBRANCH  82  84
BRANCH  82 126
ATOM    126  O   UNL     1     151.310 169.972 191.767  0.00  0.00    -0.379 OA
BRANCH 126 127
ATOM    127  C   UNL     1     152.457 169.558 192.506  0.00  0.00    +0.037 C 
ATOM    128  H   UNL     1     152.771 170.350 193.194  0.00  0.00    +0.052 HD
ATOM    129  H   UNL     1     152.252 168.635 193.056  0.00  0.00    +0.052 HD
ATOM    130  H   UNL     1     153.273 169.370 191.799  0.00  0.00    +0.052 HD
ENDBRANCH 126 127
ENDBRANCH  82 126
ENDBRANCH  76  82
ENDBRANCH  25  76
BRANCH  31 131
ATOM    131  O   UNL     1     152.259 167.856 189.518  0.00  0.00    -0.379 OA
BRANCH 131 132
ATOM    132  C   UNL     1     150.887 167.563 189.265  0.00  0.00    +0.037 C 
ATOM    133  H   UNL     1     150.797 166.809 188.477  0.00  0.00    +0.052 HD
ATOM    134  H   UNL     1     150.441 167.171 190.183  0.00  0.00    +0.052 HD
ATOM    135  H   UNL     1     150.351 168.475 188.977  0.00  0.00    +0.052 HD
ENDBRANCH 131 132
ENDBRANCH  31 131
BRANCH  29 136
ATOM    136  O   UNL     1     154.721 165.751 191.040  0.00  0.00    -0.376 OA
BRANCH 136 137
ATOM    137  C   UNL     1     155.616 164.974 190.256  0.00  0.00    +0.037 C 
ATOM    138  H   UNL     1     155.169 164.003 190.012  0.00  0.00    +0.052 HD
ATOM    139  H   UNL     1     155.808 165.514 189.322  0.00  0.00    +0.052 HD
ATOM    140  H   UNL     1     156.566 164.836 190.778  0.00  0.00    +0.052 HD
ENDBRANCH 136 137
ENDBRANCH  29 136
BRANCH  16 141
ATOM    141  O   UNL     1     142.027 168.057 188.649  0.00  0.00    -0.379 OA
BRANCH 141 142
ATOM    142  C   UNL     1     140.814 168.746 188.380  0.00  0.00    +0.037 C 
ATOM    143  H   UNL     1     139.998 168.014 188.394  0.00  0.00    +0.052 HD
ATOM    144  H   UNL     1     140.831 169.227 187.397  0.00  0.00    +0.052 HD
ATOM    145  H   UNL     1     140.623 169.492 189.163  0.00  0.00    +0.052 HD
ENDBRANCH 141 142
ENDBRANCH  16 141
BRANCH   6 146
ATOM    146  O   UNL     1     147.390 164.505 187.292  0.00  0.00    -0.379 OA
BRANCH 146 147
ATOM    147  C   UNL     1     147.258 164.394 188.707  0.00  0.00    +0.037 C 
ATOM    148  H   UNL     1     146.231 164.622 189.007  0.00  0.00    +0.052 HD
ATOM    149  H   UNL     1     147.951 165.070 189.222  0.00  0.00    +0.052 HD
ATOM    150  H   UNL     1     147.493 163.365 188.999  0.00  0.00    +0.052 HD
ENDBRANCH 146 147
ENDBRANCH   6 146
BRANCH   4 151
ATOM    151  O   UNL     1     150.030 163.281 186.585  0.00  0.00    -0.376 OA
BRANCH 151 152
ATOM    152  C   UNL     1     151.237 162.732 187.107  0.00  0.00    +0.037 C 
ATOM    153  H   UNL     1     152.098 163.334 186.800  0.00  0.00    +0.052 HD
ATOM    154  H   UNL     1     151.173 162.755 188.194  0.00  0.00    +0.052 HD
ATOM    155  H   UNL     1     151.368 161.697 186.782  0.00  0.00    +0.052 HD
ENDBRANCH 151 152
ENDBRANCH   4 151
TORSDOF 33
ENDMDL
MODEL 4
REMARK VINA RESULT:      -5.2      2.561      7.549
REMARK  Name = Reidispongiolide A_conf3
REMARK  33 active torsions:
REMARK  status: ('A' for Active; 'I' for Inactive)
REMARK    1  A    between atoms: C_1  and  C_2
REMARK    2  A    between atoms: C_5  and  O_67
REMARK    3  A    between atoms: C_7  and  O_65
REMARK    4  A    between atoms: C_8  and  C_64
REMARK    5  A    between atoms: C_17  and  O_62
REMARK    6  A    between atoms: C_19  and  C_61
REMARK    7  A    between atoms: C_26  and  C_38
REMARK    8  A    between atoms: C_27  and  C_37
REMARK    9  A    between atoms: C_30  and  O_35
REMARK   10  A    between atoms: C_32  and  O_33
REMARK   11  A    between atoms: O_33  and  C_34
REMARK   12  A    between atoms: O_35  and  C_36
REMARK   13  A    between atoms: C_38  and  C_39
REMARK   14  A    between atoms: C_38  and  C_40
REMARK   15  A    between atoms: C_40  and  C_41
REMARK   16  A    between atoms: C_40  and  O_59
REMARK   17  A    between atoms: C_41  and  C_42
REMARK   18  A    between atoms: C_41  and  C_43
REMARK   19  A    between atoms: C_43  and  C_44
REMARK   20  A    between atoms: C_44  and  C_45
REMARK   21  A    between atoms: C_45  and  C_47
REMARK   22  A    between atoms: C_47  and  C_48
REMARK   23  A    between atoms: C_47  and  C_49
REMARK   24  A    between atoms: C_49  and  C_50
REMARK   25  A    between atoms: C_49  and  O_57
REMARK   26  A    between atoms: C_50  and  C_51
REMARK   27  A    between atoms: C_52  and  N_53
REMARK   28  A    between atoms: N_53  and  C_54
REMARK   29  A    between atoms: O_57  and  C_58
REMARK   30  A    between atoms: O_59  and  C_60
REMARK   31  A    between atoms: O_62  and  C_63
REMARK   32  A    between atoms: O_65  and  C_66
REMARK   33  A    between atoms: O_67  and  C_68
REMARK                            x       y       z     vdW  Elec       q    Type
REMARK                         _______ _______ _______ _____ _____    ______ ____
ROOT
ATOM      1  C   UNL     1     152.954 167.021 188.500  0.00  0.00    +0.001 C 
ATOM      2  C   UNL     1     151.972 166.376 187.529  0.00  0.00    -0.080 C 
ATOM      3  C   UNL     1     152.060 165.130 187.029  0.00  0.00    -0.059 C 
ATOM      4  C   UNL     1     151.192 164.418 186.022  0.00  0.00    +0.079 C 
ATOM      5  C   UNL     1     150.072 165.206 185.316  0.00  0.00    +0.004 C 
ATOM      6  C   UNL     1     148.816 165.539 186.152  0.00  0.00    +0.067 C 
ATOM      7  C   UNL     1     147.971 166.702 185.547  0.00  0.00    +0.020 C 
ATOM      8  C   UNL     1     147.476 166.435 184.087  0.00  0.00    +0.112 C 
ATOM      9  C   UNL     1     146.145 165.662 183.960  0.00  0.00    +0.006 C 
ATOM     10  C   UNL     1     144.933 166.556 183.946  0.00  0.00    -0.057 C 
ATOM     11  C   UNL     1     145.077 167.871 183.709  0.00  0.00    +0.022 C 
ATOM     12  C   UNL     1     146.373 168.491 183.386  0.00  0.00    +0.332 C 
ATOM     13  O   UNL     1     146.453 169.684 183.120  0.00  0.00    -0.246 OA
ATOM     14  O   UNL     1     147.442 167.665 183.319  0.00  0.00    -0.458 OA
ATOM     15  C   UNL     1     143.557 165.903 183.982  0.00  0.00    -0.004 C 
ATOM     16  C   UNL     1     142.467 166.317 185.016  0.00  0.00    +0.066 C 
ATOM     17  C   UNL     1     142.507 165.529 186.352  0.00  0.00    -0.005 C 
ATOM     18  C   UNL     1     143.271 166.098 187.535  0.00  0.00    -0.070 C 
ATOM     19  C   UNL     1     142.689 166.170 188.753  0.00  0.00    -0.062 C 
ATOM     20  C   UNL     1     143.324 166.657 189.960  0.00  0.00    -0.055 C 
ATOM     21  C   UNL     1     144.416 166.095 190.499  0.00  0.00    +0.023 C 
ATOM     22  C   UNL     1     145.084 166.756 191.630  0.00  0.00    +0.332 C 
ATOM     23  O   UNL     1     144.548 167.529 192.411  0.00  0.00    -0.246 OA
ATOM     24  O   UNL     1     146.396 166.427 191.588  0.00  0.00    -0.457 OA
ATOM     25  C   UNL     1     147.300 167.328 192.268  0.00  0.00    +0.114 C 
ATOM     26  C   UNL     1     148.315 166.538 193.155  0.00  0.00    +0.012 C 
ATOM     27  C   UNL     1     149.443 165.844 192.427  0.00  0.00    -0.079 C 
ATOM     28  C   UNL     1     150.744 166.133 192.642  0.00  0.00    -0.059 C 
ATOM     29  C   UNL     1     151.902 165.433 191.988  0.00  0.00    +0.079 C 
ATOM     30  C   UNL     1     152.020 165.605 190.461  0.00  0.00    +0.004 C 
ATOM     31  C   UNL     1     152.490 166.995 189.991  0.00  0.00    +0.067 C 
ATOM     32  H   UNL     1     153.005 168.078 188.192  0.00  0.00    +0.037 HD
ATOM     33  H   UNL     1     151.153 167.025 187.234  0.00  0.00    +0.057 HD
ATOM     34  H   UNL     1     152.881 164.501 187.368  0.00  0.00    +0.059 HD
ATOM     35  H   UNL     1     151.895 164.111 185.232  0.00  0.00    +0.064 HD
ATOM     36  H   UNL     1     149.754 164.596 184.464  0.00  0.00    +0.032 HD
ATOM     37  H   UNL     1     150.517 166.115 184.903  0.00  0.00    +0.032 HD
ATOM     38  H   UNL     1     149.124 165.834 187.162  0.00  0.00    +0.060 HD
ATOM     39  H   UNL     1     147.081 166.808 186.172  0.00  0.00    +0.036 HD
ATOM     40  H   UNL     1     148.230 165.829 183.574  0.00  0.00    +0.074 HD
ATOM     41  H   UNL     1     146.055 164.910 184.748  0.00  0.00    +0.035 HD
ATOM     42  H   UNL     1     146.152 165.118 183.006  0.00  0.00    +0.035 HD
ATOM     43  H   UNL     1     144.227 168.543 183.627  0.00  0.00    +0.069 HD
ATOM     44  H   UNL     1     143.671 164.808 184.005  0.00  0.00    +0.034 HD
ATOM     45  H   UNL     1     143.123 166.107 182.988  0.00  0.00    +0.034 HD
ATOM     46  H   UNL     1     141.526 166.019 184.529  0.00  0.00    +0.060 HD
ATOM     47  H   UNL     1     142.876 164.510 186.162  0.00  0.00    +0.034 HD
ATOM     48  H   UNL     1     141.461 165.398 186.661  0.00  0.00    +0.034 HD
ATOM     49  H   UNL     1     141.647 165.875 188.880  0.00  0.00    +0.062 HD
ATOM     50  H   UNL     1     142.869 167.536 190.417  0.00  0.00    +0.062 HD
ATOM     51  H   UNL     1     144.898 165.223 190.077  0.00  0.00    +0.069 HD
ATOM     52  H   UNL     1     146.732 167.921 192.994  0.00  0.00    +0.074 HD
ATOM     53  H   UNL     1     148.757 167.288 193.826  0.00  0.00    +0.038 HD
ATOM     54  H   UNL     1     149.172 165.059 191.721  0.00  0.00    +0.057 HD
ATOM     55  H   UNL     1     150.997 166.905 193.371  0.00  0.00    +0.059 HD
ATOM     56  H   UNL     1     151.804 164.358 192.200  0.00  0.00    +0.064 HD
ATOM     57  H   UNL     1     151.059 165.345 190.000  0.00  0.00    +0.032 HD
ATOM     58  H   UNL     1     152.758 164.865 190.125  0.00  0.00    +0.032 HD
ATOM     59  H   UNL     1     153.345 167.310 190.604  0.00  0.00    +0.060 HD
ENDROOT
BRANCH   1  60
ATOM     60  C   UNL     1     154.388 166.485 188.373  0.00  0.00    -0.057 C 
ATOM     61  H   UNL     1     154.737 166.093 189.334  0.00  0.00    +0.024 HD
ATOM     62  H   UNL     1     155.079 167.279 188.075  0.00  0.00    +0.024 HD
ATOM     63  H   UNL     1     154.469 165.676 187.642  0.00  0.00    +0.024 HD
ENDBRANCH   1  60
BRANCH  26  64
ATOM     64  C   UNL     1     147.576 165.518 194.033  0.00  0.00    -0.056 C 
ATOM     65  H   UNL     1     146.504 165.494 193.799  0.00  0.00    +0.024 HD
ATOM     66  H   UNL     1     147.686 165.760 195.093  0.00  0.00    +0.024 HD
ATOM     67  H   UNL     1     147.985 164.515 193.884  0.00  0.00    +0.024 HD
ENDBRANCH  26  64
BRANCH  18  68
ATOM     68  C   UNL     1     144.677 166.534 187.252  0.00  0.00    -0.043 C 
ATOM     69  H   UNL     1     145.375 165.714 187.432  0.00  0.00    +0.027 HD
ATOM     70  H   UNL     1     144.850 166.852 186.223  0.00  0.00    +0.027 HD
ATOM     71  H   UNL     1     144.916 167.378 187.901  0.00  0.00    +0.027 HD
ENDBRANCH  18  68
BRANCH   7  72
ATOM     72  C   UNL     1     148.734 168.026 185.689  0.00  0.00    -0.057 C 
ATOM     73  H   UNL     1     148.111 168.867 185.382  0.00  0.00    +0.023 HD
ATOM     74  H   UNL     1     149.065 168.205 186.716  0.00  0.00    +0.023 HD
ATOM     75  H   UNL     1     149.614 168.036 185.041  0.00  0.00    +0.023 HD
ENDBRANCH   7  72
BRANCH  25  76
ATOM     76  C   UNL     1     147.938 168.304 191.218  0.00  0.00    +0.020 C 
ATOM     77  H   UNL     1     148.928 168.575 191.604  0.00  0.00    +0.036 HD
BRANCH  76  78
ATOM     78  C   UNL     1     148.147 167.614 189.865  0.00  0.00    -0.057 C 
ATOM     79  H   UNL     1     148.214 166.527 189.952  0.00  0.00    +0.023 HD
ATOM     80  H   UNL     1     147.340 167.868 189.176  0.00  0.00    +0.023 HD
ATOM     81  H   UNL     1     149.063 167.944 189.373  0.00  0.00    +0.023 HD
ENDBRANCH  76  78
BRANCH  76  82
ATOM     82  C   UNL     1     147.101 169.631 191.148  0.00  0.00    +0.067 C 
ATOM     83  H   UNL     1     146.505 169.711 192.063  0.00  0.00    +0.060 HD
BRANCH  82  84
ATOM     84  C   UNL     1     146.070 169.848 189.998  0.00  0.00    -0.017 C 
ATOM     85  H   UNL     1     145.726 168.859 189.671  0.00  0.00    +0.032 HD
BRANCH  84  86
ATOM     86  C   UNL     1     144.820 170.545 190.568  0.00  0.00    -0.060 C 
ATOM     87  H   UNL     1     145.113 171.370 191.225  0.00  0.00    +0.023 HD
ATOM     88  H   UNL     1     144.217 169.852 191.167  0.00  0.00    +0.023 HD
ATOM     89  H   UNL     1     144.178 170.952 189.776  0.00  0.00    +0.023 HD
ENDBRANCH  84  86
BRANCH  84  90
ATOM     90  C   UNL     1     146.521 170.602 188.725  0.00  0.00    -0.041 C 
ATOM     91  H   UNL     1     147.613 170.720 188.768  0.00  0.00    +0.027 HD
ATOM     92  H   UNL     1     146.146 171.628 188.758  0.00  0.00    +0.027 HD
BRANCH  90  93
ATOM     93  C   UNL     1     146.148 169.989 187.377  0.00  0.00    +0.007 C 
ATOM     94  H   UNL     1     145.459 169.149 187.490  0.00  0.00    +0.034 HD
ATOM     95  H   UNL     1     147.045 169.617 186.867  0.00  0.00    +0.034 HD
BRANCH  93  96
ATOM     96  C   UNL     1     145.501 171.008 186.445  0.00  0.00    +0.139 C 
ATOM     97  O   UNL     1     146.100 172.054 186.175  0.00  0.00    -0.297 OA
BRANCH  96  98
ATOM     98  C   UNL     1     144.100 170.708 185.897  0.00  0.00    +0.041 C 
ATOM     99  H   UNL     1     144.093 169.634 185.699  0.00  0.00    +0.040 HD
BRANCH  98 100
ATOM    100  C   UNL     1     143.846 171.399 184.555  0.00  0.00    -0.053 C 
ATOM    101  H   UNL     1     144.758 171.833 184.133  0.00  0.00    +0.024 HD
ATOM    102  H   UNL     1     143.465 170.681 183.820  0.00  0.00    +0.024 HD
ATOM    103  H   UNL     1     143.090 172.187 184.653  0.00  0.00    +0.024 HD
ENDBRANCH  98 100
BRANCH  98 104
ATOM    104  C   UNL     1     142.989 170.976 186.942  0.00  0.00    +0.071 C 
ATOM    105  H   UNL     1     142.054 171.264 186.445  0.00  0.00    +0.061 HD
BRANCH 104 106
ATOM    106  C   UNL     1     142.673 169.813 187.915  0.00  0.00    -0.006 C 
ATOM    107  H   UNL     1     143.165 168.896 187.565  0.00  0.00    +0.033 HD
ATOM    108  H   UNL     1     143.160 170.035 188.873  0.00  0.00    +0.033 HD
BRANCH 106 109
ATOM    109  C   UNL     1     141.212 169.580 188.192  0.00  0.00    -0.067 C 
ATOM    110  C   UNL     1     140.540 170.231 189.153  0.00  0.00    -0.005 C 
ATOM    111  H   UNL     1     140.735 168.851 187.542  0.00  0.00    +0.059 HD
ATOM    112  H   UNL     1     141.065 170.984 189.738  0.00  0.00    +0.078 HD
BRANCH 110 113
ATOM    113  N   UNL     1     139.212 170.059 189.506  0.00  0.00    -0.284 N 
ATOM    114  C   UNL     1     138.711 170.118 190.806  0.00  0.00    +0.206 C 
ATOM    115  O   UNL     1     137.535 169.964 191.125  0.00  0.00    -0.279 OA
ATOM    116  H   UNL     1     139.467 170.333 191.570  0.00  0.00    +0.126 HD
BRANCH 113 117
ATOM    117  C   UNL     1     138.256 169.839 188.425  0.00  0.00    +0.007 C 
ATOM    118  H   UNL     1     138.803 169.855 187.474  0.00  0.00    +0.043 HD
ATOM    119  H   UNL     1     137.480 170.608 188.395  0.00  0.00    +0.043 HD
ATOM    120  H   UNL     1     137.775 168.862 188.555  0.00  0.00    +0.043 HD
ENDBRANCH 113 117
ENDBRANCH 110 113
ENDBRANCH 106 109
ENDBRANCH 104 106
BRANCH 104 121
ATOM    121  O   UNL     1     143.411 172.070 187.790  0.00  0.00    -0.379 OA
BRANCH 121 122
ATOM    122  C   UNL     1     142.544 173.200 187.726  0.00  0.00    +0.037 C 
ATOM    123  H   UNL     1     143.081 174.022 187.243  0.00  0.00    +0.052 HD
ATOM    124  H   UNL     1     141.653 172.976 187.138  0.00  0.00    +0.052 HD
ATOM    125  H   UNL     1     142.255 173.515 188.734  0.00  0.00    +0.052 HD
ENDBRANCH 121 122
ENDBRANCH 104 121
ENDBRANCH  98 104
ENDBRANCH  96  98
ENDBRANCH  93  96
ENDBRANCH  90  93
ENDBRANCH  84  90
ENDBRANCH  82  84
BRANCH  82 126
ATOM    126  O   UNL     1     148.020 170.741 191.143  0.00  0.00    -0.379 OA
BRANCH 126 127
ATOM    127  C   UNL     1     148.645 170.962 192.405  0.00  0.00    +0.037 C 
ATOM    128  H   UNL     1     149.499 170.289 192.529  0.00  0.00    +0.052 HD
ATOM    129  H   UNL     1     148.966 172.005 192.502  0.00  0.00    +0.052 HD
ATOM    130  H   UNL     1     147.916 170.746 193.194  0.00  0.00    +0.052 HD
ENDBRANCH 126 127
ENDBRANCH  82 126
ENDBRANCH  76  82
ENDBRANCH  25  76
BRANCH  31 131
ATOM    131  O   UNL     1     151.413 167.935 190.153  0.00  0.00    -0.379 OA
BRANCH 131 132
ATOM    132  C   UNL     1     151.736 168.968 191.080  0.00  0.00    +0.037 C 
ATOM    133  H   UNL     1     151.685 168.589 192.105  0.00  0.00    +0.052 HD
ATOM    134  H   UNL     1     152.756 169.308 190.878  0.00  0.00    +0.052 HD
ATOM    135  H   UNL     1     151.054 169.817 190.956  0.00  0.00    +0.052 HD
ENDBRANCH 131 132
ENDBRANCH  31 131
BRANCH  29 136
ATOM    136  O   UNL     1     153.099 165.944 192.602  0.00  0.00    -0.376 OA
BRANCH 136 137
ATOM    137  C   UNL     1     152.869 166.521 193.880  0.00  0.00    +0.037 C 
ATOM    138  H   UNL     1     152.716 165.739 194.633  0.00  0.00    +0.052 HD
ATOM    139  H   UNL     1     153.755 167.102 194.156  0.00  0.00    +0.052 HD
ATOM    140  H   UNL     1     152.008 167.194 193.849  0.00  0.00    +0.052 HD
ENDBRANCH 136 137
ENDBRANCH  29 136
BRANCH  16 141
ATOM    141  O   UNL     1     142.430 167.737 185.176  0.00  0.00    -0.379 OA
BRANCH 141 142
ATOM    142  C   UNL     1     141.327 168.361 184.534  0.00  0.00    +0.037 C 
ATOM    143  H   UNL     1     140.780 168.939 185.286  0.00  0.00    +0.052 HD
ATOM    144  H   UNL     1     140.644 167.624 184.098  0.00  0.00    +0.052 HD
ATOM    145  H   UNL     1     141.684 169.051 183.759  0.00  0.00    +0.052 HD
ENDBRANCH 141 142
ENDBRANCH  16 141
BRANCH   6 146
ATOM    146  O   UNL     1     147.982 164.375 186.222  0.00  0.00    -0.379 OA
BRANCH 146 147
ATOM    147  C   UNL     1     147.478 164.143 187.534  0.00  0.00    +0.037 C 
ATOM    148  H   UNL     1     147.332 163.071 187.696  0.00  0.00    +0.052 HD
ATOM    149  H   UNL     1     146.530 164.671 187.692  0.00  0.00    +0.052 HD
ATOM    150  H   UNL     1     148.209 164.514 188.260  0.00  0.00    +0.052 HD
ENDBRANCH 146 147
ENDBRANCH   6 146
BRANCH   4 151
ATOM    151  O   UNL     1     150.716 163.244 186.687  0.00  0.00    -0.376 OA
BRANCH 151 152
ATOM    152  C   UNL     1     151.594 162.779 187.708  0.00  0.00    +0.037 C 
ATOM    153  H   UNL     1     152.520 162.392 187.273  0.00  0.00    +0.052 HD
ATOM    154  H   UNL     1     151.844 163.625 188.347  0.00  0.00    +0.052 HD
ATOM    155  H   UNL     1     151.114 162.007 188.315  0.00  0.00    +0.052 HD
ENDBRANCH 151 152
ENDBRANCH   4 151
TORSDOF 33
ENDMDL
MODEL 5
REMARK VINA RESULT:      -5.1      2.849      7.820
REMARK  Name = Reidispongiolide A_conf3
REMARK  33 active torsions:
REMARK  status: ('A' for Active; 'I' for Inactive)
REMARK    1  A    between atoms: C_1  and  C_2
REMARK    2  A    between atoms: C_5  and  O_67
REMARK    3  A    between atoms: C_7  and  O_65
REMARK    4  A    between atoms: C_8  and  C_64
REMARK    5  A    between atoms: C_17  and  O_62
REMARK    6  A    between atoms: C_19  and  C_61
REMARK    7  A    between atoms: C_26  and  C_38
REMARK    8  A    between atoms: C_27  and  C_37
REMARK    9  A    between atoms: C_30  and  O_35
REMARK   10  A    between atoms: C_32  and  O_33
REMARK   11  A    between atoms: O_33  and  C_34
REMARK   12  A    between atoms: O_35  and  C_36
REMARK   13  A    between atoms: C_38  and  C_39
REMARK   14  A    between atoms: C_38  and  C_40
REMARK   15  A    between atoms: C_40  and  C_41
REMARK   16  A    between atoms: C_40  and  O_59
REMARK   17  A    between atoms: C_41  and  C_42
REMARK   18  A    between atoms: C_41  and  C_43
REMARK   19  A    between atoms: C_43  and  C_44
REMARK   20  A    between atoms: C_44  and  C_45
REMARK   21  A    between atoms: C_45  and  C_47
REMARK   22  A    between atoms: C_47  and  C_48
REMARK   23  A    between atoms: C_47  and  C_49
REMARK   24  A    between atoms: C_49  and  C_50
REMARK   25  A    between atoms: C_49  and  O_57
REMARK   26  A    between atoms: C_50  and  C_51
REMARK   27  A    between atoms: C_52  and  N_53
REMARK   28  A    between atoms: N_53  and  C_54
REMARK   29  A    between atoms: O_57  and  C_58
REMARK   30  A    between atoms: O_59  and  C_60
REMARK   31  A    between atoms: O_62  and  C_63
REMARK   32  A    between atoms: O_65  and  C_66
REMARK   33  A    between atoms: O_67  and  C_68
REMARK                            x       y       z     vdW  Elec       q    Type
REMARK                         _______ _______ _______ _____ _____    ______ ____
ROOT
ATOM      1  C   UNL     1     153.089 166.866 188.539  0.00  0.00    +0.001 C 
ATOM      2  C   UNL     1     152.138 166.114 187.614  0.00  0.00    -0.080 C 
ATOM      3  C   UNL     1     152.269 164.835 187.218  0.00  0.00    -0.059 C 
ATOM      4  C   UNL     1     151.435 164.017 186.264  0.00  0.00    +0.079 C 
ATOM      5  C   UNL     1     150.301 164.711 185.486  0.00  0.00    +0.004 C 
ATOM      6  C   UNL     1     149.025 165.072 186.280  0.00  0.00    +0.067 C 
ATOM      7  C   UNL     1     148.153 166.156 185.574  0.00  0.00    +0.020 C 
ATOM      8  C   UNL     1     147.684 165.756 184.136  0.00  0.00    +0.112 C 
ATOM      9  C   UNL     1     146.378 164.935 184.060  0.00  0.00    +0.006 C 
ATOM     10  C   UNL     1     145.140 165.787 183.961  0.00  0.00    -0.057 C 
ATOM     11  C   UNL     1     145.248 167.083 183.620  0.00  0.00    +0.022 C 
ATOM     12  C   UNL     1     146.529 167.714 183.260  0.00  0.00    +0.332 C 
ATOM     13  O   UNL     1     146.577 168.883 182.898  0.00  0.00    -0.246 OA
ATOM     14  O   UNL     1     147.623 166.918 183.270  0.00  0.00    -0.458 OA
ATOM     15  C   UNL     1     143.784 165.098 184.038  0.00  0.00    -0.004 C 
ATOM     16  C   UNL     1     142.670 165.561 185.024  0.00  0.00    +0.066 C 
ATOM     17  C   UNL     1     142.717 164.885 186.420  0.00  0.00    -0.005 C 
ATOM     18  C   UNL     1     143.450 165.572 187.560  0.00  0.00    -0.070 C 
ATOM     19  C   UNL     1     142.852 165.724 188.762  0.00  0.00    -0.062 C 
ATOM     20  C   UNL     1     143.457 166.327 189.932  0.00  0.00    -0.055 C 
ATOM     21  C   UNL     1     144.559 165.844 190.525  0.00  0.00    +0.023 C 
ATOM     22  C   UNL     1     145.193 166.615 191.605  0.00  0.00    +0.332 C 
ATOM     23  O   UNL     1     144.626 167.432 192.315  0.00  0.00    -0.246 OA
ATOM     24  O   UNL     1     146.516 166.324 191.602  0.00  0.00    -0.457 OA
ATOM     25  C   UNL     1     147.384 167.304 192.215  0.00  0.00    +0.114 C 
ATOM     26  C   UNL     1     148.411 166.620 193.173  0.00  0.00    +0.012 C 
ATOM     27  C   UNL     1     149.568 165.904 192.515  0.00  0.00    -0.079 C 
ATOM     28  C   UNL     1     150.857 166.249 192.718  0.00  0.00    -0.059 C 
ATOM     29  C   UNL     1     152.043 165.534 192.134  0.00  0.00    +0.079 C 
ATOM     30  C   UNL     1     152.174 165.585 190.599  0.00  0.00    +0.004 C 
ATOM     31  C   UNL     1     152.608 166.947 190.022  0.00  0.00    +0.067 C 
ATOM     32  H   UNL     1     153.112 167.895 188.146  0.00  0.00    +0.037 HD
ATOM     33  H   UNL     1     151.304 166.712 187.259  0.00  0.00    +0.057 HD
ATOM     34  H   UNL     1     153.104 164.261 187.615  0.00  0.00    +0.059 HD
ATOM     35  H   UNL     1     152.157 163.669 185.509  0.00  0.00    +0.064 HD
ATOM     36  H   UNL     1     150.011 164.025 184.683  0.00  0.00    +0.032 HD
ATOM     37  H   UNL     1     150.723 165.597 185.004  0.00  0.00    +0.032 HD
ATOM     38  H   UNL     1     149.312 165.458 187.265  0.00  0.00    +0.060 HD
ATOM     39  H   UNL     1     147.254 166.285 186.179  0.00  0.00    +0.036 HD
ATOM     40  H   UNL     1     148.462 165.134 183.681  0.00  0.00    +0.074 HD
ATOM     41  H   UNL     1     146.301 164.247 184.906  0.00  0.00    +0.035 HD
ATOM     42  H   UNL     1     146.413 164.316 183.153  0.00  0.00    +0.035 HD
ATOM     43  H   UNL     1     144.380 167.719 183.475  0.00  0.00    +0.069 HD
ATOM     44  H   UNL     1     143.931 164.013 184.150  0.00  0.00    +0.034 HD
ATOM     45  H   UNL     1     143.356 165.207 183.026  0.00  0.00    +0.034 HD
ATOM     46  H   UNL     1     141.744 165.196 184.554  0.00  0.00    +0.060 HD
ATOM     47  H   UNL     1     143.119 163.866 186.318  0.00  0.00    +0.034 HD
ATOM     48  H   UNL     1     141.672 164.748 186.728  0.00  0.00    +0.034 HD
ATOM     49  H   UNL     1     141.817 165.409 188.903  0.00  0.00    +0.062 HD
ATOM     50  H   UNL     1     142.971 167.226 190.311  0.00  0.00    +0.062 HD
ATOM     51  H   UNL     1     145.072 164.956 190.180  0.00  0.00    +0.069 HD
ATOM     52  H   UNL     1     146.790 167.937 192.885  0.00  0.00    +0.074 HD
ATOM     53  H   UNL     1     148.823 167.435 193.785  0.00  0.00    +0.038 HD
ATOM     54  H   UNL     1     149.329 165.056 191.872  0.00  0.00    +0.057 HD
ATOM     55  H   UNL     1     151.079 167.085 193.384  0.00  0.00    +0.059 HD
ATOM     56  H   UNL     1     151.974 164.478 192.432  0.00  0.00    +0.064 HD
ATOM     57  H   UNL     1     151.227 165.260 190.152  0.00  0.00    +0.032 HD
ATOM     58  H   UNL     1     152.938 164.843 190.332  0.00  0.00    +0.032 HD
ATOM     59  H   UNL     1     153.446 167.336 190.616  0.00  0.00    +0.060 HD
ENDROOT
BRANCH   1  60
ATOM     60  C   UNL     1     154.540 166.365 188.469  0.00  0.00    -0.057 C 
ATOM     61  H   UNL     1     155.204 167.163 188.124  0.00  0.00    +0.024 HD
ATOM     62  H   UNL     1     154.634 165.534 187.762  0.00  0.00    +0.024 HD
ATOM     63  H   UNL     1     154.912 166.025 189.439  0.00  0.00    +0.024 HD
ENDBRANCH   1  60
BRANCH  26  64
ATOM     64  C   UNL     1     147.693 165.652 194.124  0.00  0.00    -0.056 C 
ATOM     65  H   UNL     1     147.032 164.971 193.573  0.00  0.00    +0.024 HD
ATOM     66  H   UNL     1     147.086 166.196 194.853  0.00  0.00    +0.024 HD
ATOM     67  H   UNL     1     148.417 165.055 194.684  0.00  0.00    +0.024 HD
ENDBRANCH  26  64
BRANCH  18  68
ATOM     68  C   UNL     1     144.846 166.026 187.256  0.00  0.00    -0.043 C 
ATOM     69  H   UNL     1     144.863 167.100 187.056  0.00  0.00    +0.027 HD
ATOM     70  H   UNL     1     145.557 165.863 188.067  0.00  0.00    +0.027 HD
ATOM     71  H   UNL     1     145.209 165.477 186.386  0.00  0.00    +0.027 HD
ENDBRANCH  18  68
BRANCH   7  72
ATOM     72  C   UNL     1     148.875 167.510 185.615  0.00  0.00    -0.057 C 
ATOM     73  H   UNL     1     148.750 168.044 184.672  0.00  0.00    +0.023 HD
ATOM     74  H   UNL     1     148.507 168.151 186.421  0.00  0.00    +0.023 HD
ATOM     75  H   UNL     1     149.950 167.370 185.754  0.00  0.00    +0.023 HD
ENDBRANCH   7  72
BRANCH  25  76
ATOM     76  C   UNL     1     148.005 168.211 191.095  0.00  0.00    +0.020 C 
ATOM     77  H   UNL     1     149.014 168.478 191.433  0.00  0.00    +0.036 HD
BRANCH  76  78
ATOM     78  C   UNL     1     148.151 167.449 189.773  0.00  0.00    -0.057 C 
ATOM     79  H   UNL     1     148.199 168.113 188.907  0.00  0.00    +0.023 HD
ATOM     80  H   UNL     1     149.041 166.818 189.788  0.00  0.00    +0.023 HD
ATOM     81  H   UNL     1     147.316 166.768 189.597  0.00  0.00    +0.023 HD
ENDBRANCH  76  78
BRANCH  76  82
ATOM     82  C   UNL     1     147.195 169.552 190.986  0.00  0.00    +0.067 C 
ATOM     83  H   UNL     1     146.625 169.687 191.912  0.00  0.00    +0.060 HD
BRANCH  82  84
ATOM     84  C   UNL     1     146.138 169.740 189.855  0.00  0.00    -0.017 C 
ATOM     85  H   UNL     1     145.779 168.744 189.569  0.00  0.00    +0.032 HD
BRANCH  84  86
ATOM     86  C   UNL     1     144.909 170.466 190.431  0.00  0.00    -0.060 C 
ATOM     87  H   UNL     1     144.113 169.748 190.653  0.00  0.00    +0.023 HD
ATOM     88  H   UNL     1     144.502 171.188 189.712  0.00  0.00    +0.023 HD
ATOM     89  H   UNL     1     145.146 171.009 191.355  0.00  0.00    +0.023 HD
ENDBRANCH  84  86
BRANCH  84  90
ATOM     90  C   UNL     1     146.565 170.448 188.547  0.00  0.00    -0.041 C 
ATOM     91  H   UNL     1     147.572 170.862 188.697  0.00  0.00    +0.027 HD
ATOM     92  H   UNL     1     145.940 171.331 188.391  0.00  0.00    +0.027 HD
BRANCH  90  93
ATOM     93  C   UNL     1     146.564 169.617 187.266  0.00  0.00    +0.007 C 
ATOM     94  H   UNL     1     146.163 168.614 187.433  0.00  0.00    +0.034 HD
ATOM     95  H   UNL     1     147.586 169.507 186.884  0.00  0.00    +0.034 HD
BRANCH  93  96
ATOM     96  C   UNL     1     145.746 170.273 186.159  0.00  0.00    +0.139 C 
ATOM     97  O   UNL     1     146.267 171.138 185.447  0.00  0.00    -0.297 OA
BRANCH  96  98
ATOM     98  C   UNL     1     144.280 169.856 185.989  0.00  0.00    +0.041 C 
ATOM     99  H   UNL     1     144.296 168.765 185.951  0.00  0.00    +0.040 HD
BRANCH  98 100
ATOM    100  C   UNL     1     143.696 170.330 184.656  0.00  0.00    -0.053 C 
ATOM    101  H   UNL     1     143.355 171.369 184.699  0.00  0.00    +0.024 HD
ATOM    102  H   UNL     1     144.453 170.276 183.866  0.00  0.00    +0.024 HD
ATOM    103  H   UNL     1     142.860 169.693 184.342  0.00  0.00    +0.024 HD
ENDBRANCH  98 100
BRANCH  98 104
ATOM    104  C   UNL     1     143.411 170.246 187.210  0.00  0.00    +0.071 C 
ATOM    105  H   UNL     1     144.024 170.289 188.120  0.00  0.00    +0.061 HD
BRANCH 104 106
ATOM    106  C   UNL     1     142.634 171.581 187.096  0.00  0.00    -0.006 C 
ATOM    107  H   UNL     1     142.077 171.603 186.150  0.00  0.00    +0.033 HD
ATOM    108  H   UNL     1     141.856 171.583 187.870  0.00  0.00    +0.033 HD
BRANCH 106 109
ATOM    109  C   UNL     1     143.458 172.827 187.278  0.00  0.00    -0.067 C 
ATOM    110  C   UNL     1     143.743 173.666 186.273  0.00  0.00    -0.005 C 
ATOM    111  H   UNL     1     143.796 173.004 188.296  0.00  0.00    +0.059 HD
ATOM    112  H   UNL     1     143.334 173.456 185.286  0.00  0.00    +0.078 HD
BRANCH 110 113
ATOM    113  N   UNL     1     144.520 174.811 186.334  0.00  0.00    -0.284 N 
ATOM    114  C   UNL     1     145.874 174.883 186.010  0.00  0.00    +0.206 C 
ATOM    115  O   UNL     1     146.569 175.894 186.065  0.00  0.00    -0.279 OA
ATOM    116  H   UNL     1     146.307 173.933 185.673  0.00  0.00    +0.126 HD
BRANCH 113 117
ATOM    117  C   UNL     1     143.856 176.049 186.732  0.00  0.00    +0.007 C 
ATOM    118  H   UNL     1     144.623 176.822 186.864  0.00  0.00    +0.043 HD
ATOM    119  H   UNL     1     143.303 175.941 187.668  0.00  0.00    +0.043 HD
ATOM    120  H   UNL     1     143.156 176.357 185.946  0.00  0.00    +0.043 HD
ENDBRANCH 113 117
ENDBRANCH 110 113
ENDBRANCH 106 109
ENDBRANCH 104 106
BRANCH 104 121
ATOM    121  O   UNL     1     142.395 169.233 187.393  0.00  0.00    -0.379 OA
BRANCH 121 122
ATOM    122  C   UNL     1     141.659 169.383 188.605  0.00  0.00    +0.037 C 
ATOM    123  H   UNL     1     140.609 169.562 188.353  0.00  0.00    +0.052 HD
ATOM    124  H   UNL     1     141.720 168.478 189.211  0.00  0.00    +0.052 HD
ATOM    125  H   UNL     1     142.034 170.238 189.175  0.00  0.00    +0.052 HD
ENDBRANCH 121 122
ENDBRANCH 104 121
ENDBRANCH  98 104
ENDBRANCH  96  98
ENDBRANCH  93  96
ENDBRANCH  90  93
ENDBRANCH  84  90
ENDBRANCH  82  84
BRANCH  82 126
ATOM    126  O   UNL     1     148.137 170.640 190.907  0.00  0.00    -0.379 OA
BRANCH 126 127
ATOM    127  C   UNL     1     148.445 171.213 192.175  0.00  0.00    +0.037 C 
ATOM    128  H   UNL     1     148.821 170.445 192.859  0.00  0.00    +0.052 HD
ATOM    129  H   UNL     1     149.179 172.019 192.068  0.00  0.00    +0.052 HD
ATOM    130  H   UNL     1     147.525 171.632 192.597  0.00  0.00    +0.052 HD
ENDBRANCH 126 127
ENDBRANCH  82 126
ENDBRANCH  76  82
ENDBRANCH  25  76
BRANCH  31 131
ATOM    131  O   UNL     1     151.502 167.863 190.096  0.00  0.00    -0.379 OA
BRANCH 131 132
ATOM    132  C   UNL     1     151.748 168.929 191.010  0.00  0.00    +0.037 C 
ATOM    133  H   UNL     1     150.805 169.342 191.378  0.00  0.00    +0.052 HD
ATOM    134  H   UNL     1     152.317 168.535 191.857  0.00  0.00    +0.052 HD
ATOM    135  H   UNL     1     152.341 169.714 190.526  0.00  0.00    +0.052 HD
ENDBRANCH 131 132
ENDBRANCH  31 131
BRANCH  29 136
ATOM    136  O   UNL     1     153.217 166.129 192.716  0.00  0.00    -0.376 OA
BRANCH 136 137
ATOM    137  C   UNL     1     152.997 166.633 194.026  0.00  0.00    +0.037 C 
ATOM    138  H   UNL     1     153.227 167.703 194.070  0.00  0.00    +0.052 HD
ATOM    139  H   UNL     1     151.938 166.494 194.271  0.00  0.00    +0.052 HD
ATOM    140  H   UNL     1     153.597 166.083 194.756  0.00  0.00    +0.052 HD
ENDBRANCH 136 137
ENDBRANCH  29 136
BRANCH  16 141
ATOM    141  O   UNL     1     142.589 166.987 185.067  0.00  0.00    -0.379 OA
BRANCH 141 142
ATOM    142  C   UNL     1     141.398 167.514 184.500  0.00  0.00    +0.037 C 
ATOM    143  H   UNL     1     140.818 167.982 185.304  0.00  0.00    +0.052 HD
ATOM    144  H   UNL     1     140.787 166.730 184.042  0.00  0.00    +0.052 HD
ATOM    145  H   UNL     1     141.644 168.285 183.758  0.00  0.00    +0.052 HD
ENDBRANCH 141 142
ENDBRANCH  16 141
BRANCH   6 146
ATOM    146  O   UNL     1     148.226 163.893 186.436  0.00  0.00    -0.379 OA
BRANCH 146 147
ATOM    147  C   UNL     1     147.681 163.773 187.748  0.00  0.00    +0.037 C 
ATOM    148  H   UNL     1     148.486 163.758 188.488  0.00  0.00    +0.052 HD
ATOM    149  H   UNL     1     147.077 162.863 187.843  0.00  0.00    +0.052 HD
ATOM    150  H   UNL     1     147.040 164.639 187.940  0.00  0.00    +0.052 HD
ENDBRANCH 146 147
ENDBRANCH   6 146
BRANCH   4 151
ATOM    151  O   UNL     1     150.986 162.887 187.018  0.00  0.00    -0.376 OA
BRANCH 151 152
ATOM    152  C   UNL     1     151.858 162.542 188.090  0.00  0.00    +0.037 C 
ATOM    153  H   UNL     1     151.439 162.867 189.047  0.00  0.00    +0.052 HD
ATOM    154  H   UNL     1     151.953 161.457 188.110  0.00  0.00    +0.052 HD
ATOM    155  H   UNL     1     152.848 162.981 187.947  0.00  0.00    +0.052 HD
ENDBRANCH 151 152
ENDBRANCH   4 151
TORSDOF 33
ENDMDL
MODEL 6
REMARK VINA RESULT:      -5.0      4.991     10.878
REMARK  Name = Reidispongiolide A_conf3
REMARK  33 active torsions:
REMARK  status: ('A' for Active; 'I' for Inactive)
REMARK    1  A    between atoms: C_1  and  C_2
REMARK    2  A    between atoms: C_5  and  O_67
REMARK    3  A    between atoms: C_7  and  O_65
REMARK    4  A    between atoms: C_8  and  C_64
REMARK    5  A    between atoms: C_17  and  O_62
REMARK    6  A    between atoms: C_19  and  C_61
REMARK    7  A    between atoms: C_26  and  C_38
REMARK    8  A    between atoms: C_27  and  C_37
REMARK    9  A    between atoms: C_30  and  O_35
REMARK   10  A    between atoms: C_32  and  O_33
REMARK   11  A    between atoms: O_33  and  C_34
REMARK   12  A    between atoms: O_35  and  C_36
REMARK   13  A    between atoms: C_38  and  C_39
REMARK   14  A    between atoms: C_38  and  C_40
REMARK   15  A    between atoms: C_40  and  C_41
REMARK   16  A    between atoms: C_40  and  O_59
REMARK   17  A    between atoms: C_41  and  C_42
REMARK   18  A    between atoms: C_41  and  C_43
REMARK   19  A    between atoms: C_43  and  C_44
REMARK   20  A    between atoms: C_44  and  C_45
REMARK   21  A    between atoms: C_45  and  C_47
REMARK   22  A    between atoms: C_47  and  C_48
REMARK   23  A    between atoms: C_47  and  C_49
REMARK   24  A    between atoms: C_49  and  C_50
REMARK   25  A    between atoms: C_49  and  O_57
REMARK   26  A    between atoms: C_50  and  C_51
REMARK   27  A    between atoms: C_52  and  N_53
REMARK   28  A    between atoms: N_53  and  C_54
REMARK   29  A    between atoms: O_57  and  C_58
REMARK   30  A    between atoms: O_59  and  C_60
REMARK   31  A    between atoms: O_62  and  C_63
REMARK   32  A    between atoms: O_65  and  C_66
REMARK   33  A    between atoms: O_67  and  C_68
REMARK                            x       y       z     vdW  Elec       q    Type
REMARK                         _______ _______ _______ _____ _____    ______ ____
ROOT
ATOM      1  C   UNL     1     158.357 162.874 189.199  0.00  0.00    +0.001 C 
ATOM      2  C   UNL     1     158.756 163.552 187.893  0.00  0.00    -0.080 C 
ATOM      3  C   UNL     1     159.753 163.168 187.077  0.00  0.00    -0.059 C 
ATOM      4  C   UNL     1     160.273 163.794 185.808  0.00  0.00    +0.079 C 
ATOM      5  C   UNL     1     159.705 165.156 185.364  0.00  0.00    +0.004 C 
ATOM      6  C   UNL     1     158.277 165.161 184.772  0.00  0.00    +0.067 C 
ATOM      7  C   UNL     1     157.613 166.572 184.792  0.00  0.00    +0.020 C 
ATOM      8  C   UNL     1     158.420 167.664 184.015  0.00  0.00    +0.112 C 
ATOM      9  C   UNL     1     158.131 167.764 182.502  0.00  0.00    +0.006 C 
ATOM     10  C   UNL     1     157.005 168.707 182.168  0.00  0.00    -0.057 C 
ATOM     11  C   UNL     1     156.587 169.597 183.084  0.00  0.00    +0.022 C 
ATOM     12  C   UNL     1     157.227 169.753 184.402  0.00  0.00    +0.332 C 
ATOM     13  O   UNL     1     156.852 170.615 185.187  0.00  0.00    -0.246 OA
ATOM     14  O   UNL     1     158.290 168.958 184.659  0.00  0.00    -0.458 OA
ATOM     15  C   UNL     1     156.523 168.771 180.725  0.00  0.00    -0.004 C 
ATOM     16  C   UNL     1     155.020 168.620 180.341  0.00  0.00    +0.066 C 
ATOM     17  C   UNL     1     154.561 167.161 180.078  0.00  0.00    -0.005 C 
ATOM     18  C   UNL     1     153.939 166.357 181.206  0.00  0.00    -0.070 C 
ATOM     19  C   UNL     1     152.775 165.697 181.013  0.00  0.00    -0.062 C 
ATOM     20  C   UNL     1     152.103 164.871 181.995  0.00  0.00    -0.055 C 
ATOM     21  C   UNL     1     152.653 163.773 182.537  0.00  0.00    +0.023 C 
ATOM     22  C   UNL     1     151.963 163.094 183.643  0.00  0.00    +0.332 C 
ATOM     23  O   UNL     1     150.762 163.148 183.866  0.00  0.00    -0.246 OA
ATOM     24  O   UNL     1     152.901 162.486 184.407  0.00  0.00    -0.457 OA
ATOM     25  C   UNL     1     152.522 162.198 185.772  0.00  0.00    +0.114 C 
ATOM     26  C   UNL     1     152.913 160.738 186.165  0.00  0.00    +0.012 C 
ATOM     27  C   UNL     1     154.376 160.486 186.445  0.00  0.00    -0.079 C 
ATOM     28  C   UNL     1     154.832 160.052 187.639  0.00  0.00    -0.059 C 
ATOM     29  C   UNL     1     156.267 159.733 187.950  0.00  0.00    +0.079 C 
ATOM     30  C   UNL     1     157.248 160.921 187.904  0.00  0.00    +0.004 C 
ATOM     31  C   UNL     1     157.131 161.916 189.075  0.00  0.00    +0.067 C 
ATOM     32  H   UNL     1     158.062 163.698 189.868  0.00  0.00    +0.037 HD
ATOM     33  H   UNL     1     158.159 164.427 187.652  0.00  0.00    +0.057 HD
ATOM     34  H   UNL     1     160.312 162.272 187.340  0.00  0.00    +0.059 HD
ATOM     35  H   UNL     1     161.343 163.960 186.009  0.00  0.00    +0.064 HD
ATOM     36  H   UNL     1     160.385 165.541 184.596  0.00  0.00    +0.032 HD
ATOM     37  H   UNL     1     159.776 165.838 186.216  0.00  0.00    +0.032 HD
ATOM     38  H   UNL     1     157.645 164.481 185.355  0.00  0.00    +0.060 HD
ATOM     39  H   UNL     1     156.645 166.476 184.295  0.00  0.00    +0.036 HD
ATOM     40  H   UNL     1     159.487 167.435 184.107  0.00  0.00    +0.074 HD
ATOM     41  H   UNL     1     157.938 166.775 182.077  0.00  0.00    +0.035 HD
ATOM     42  H   UNL     1     159.030 168.151 182.003  0.00  0.00    +0.035 HD
ATOM     43  H   UNL     1     155.823 170.338 182.869  0.00  0.00    +0.069 HD
ATOM     44  H   UNL     1     157.119 168.080 180.109  0.00  0.00    +0.034 HD
ATOM     45  H   UNL     1     156.825 169.772 180.372  0.00  0.00    +0.034 HD
ATOM     46  H   UNL     1     154.952 169.128 179.367  0.00  0.00    +0.060 HD
ATOM     47  H   UNL     1     155.403 166.583 179.668  0.00  0.00    +0.034 HD
ATOM     48  H   UNL     1     153.830 167.214 179.261  0.00  0.00    +0.034 HD
ATOM     49  H   UNL     1     152.246 165.788 180.063  0.00  0.00    +0.062 HD
ATOM     50  H   UNL     1     151.108 165.199 182.294  0.00  0.00    +0.062 HD
ATOM     51  H   UNL     1     153.637 163.414 182.268  0.00  0.00    +0.069 HD
ATOM     52  H   UNL     1     151.428 162.200 185.846  0.00  0.00    +0.074 HD
ATOM     53  H   UNL     1     152.351 160.526 187.086  0.00  0.00    +0.038 HD
ATOM     54  H   UNL     1     155.076 160.645 185.624  0.00  0.00    +0.057 HD
ATOM     55  H   UNL     1     154.115 159.875 188.443  0.00  0.00    +0.059 HD
ATOM     56  H   UNL     1     156.608 158.986 187.218  0.00  0.00    +0.064 HD
ATOM     57  H   UNL     1     157.133 161.439 186.944  0.00  0.00    +0.032 HD
ATOM     58  H   UNL     1     158.256 160.487 187.926  0.00  0.00    +0.032 HD
ATOM     59  H   UNL     1     157.059 161.353 190.016  0.00  0.00    +0.060 HD
ENDROOT
BRANCH   1  60
ATOM     60  C   UNL     1     159.524 162.167 189.906  0.00  0.00    -0.057 C 
ATOM     61  H   UNL     1     159.581 162.477 190.955  0.00  0.00    +0.024 HD
ATOM     62  H   UNL     1     160.479 162.424 189.438  0.00  0.00    +0.024 HD
ATOM     63  H   UNL     1     159.424 161.078 189.892  0.00  0.00    +0.024 HD
ENDBRANCH   1  60
BRANCH  26  64
ATOM     64  C   UNL     1     152.426 159.748 185.097  0.00  0.00    -0.056 C 
ATOM     65  H   UNL     1     152.368 160.225 184.110  0.00  0.00    +0.024 HD
ATOM     66  H   UNL     1     151.435 159.360 185.343  0.00  0.00    +0.024 HD
ATOM     67  H   UNL     1     153.102 158.893 185.028  0.00  0.00    +0.024 HD
ENDBRANCH  26  64
BRANCH  18  68
ATOM     68  C   UNL     1     154.706 166.339 182.494  0.00  0.00    -0.043 C 
ATOM     69  H   UNL     1     155.042 165.326 182.724  0.00  0.00    +0.027 HD
ATOM     70  H   UNL     1     155.606 166.956 182.488  0.00  0.00    +0.027 HD
ATOM     71  H   UNL     1     154.059 166.710 183.289  0.00  0.00    +0.027 HD
ENDBRANCH  18  68
BRANCH   7  72
ATOM     72  C   UNL     1     157.295 166.975 186.238  0.00  0.00    -0.057 C 
ATOM     73  H   UNL     1     158.051 166.589 186.923  0.00  0.00    +0.023 HD
ATOM     74  H   UNL     1     157.244 168.060 186.364  0.00  0.00    +0.023 HD
ATOM     75  H   UNL     1     156.339 166.550 186.556  0.00  0.00    +0.023 HD
ENDBRANCH   7  72
BRANCH  25  76
ATOM     76  C   UNL     1     153.086 163.323 186.709  0.00  0.00    +0.020 C 
ATOM     77  H   UNL     1     153.357 162.836 187.653  0.00  0.00    +0.036 HD
BRANCH  76  78
ATOM     78  C   UNL     1     154.361 163.948 186.131  0.00  0.00    -0.057 C 
ATOM     79  H   UNL     1     154.919 164.527 186.871  0.00  0.00    +0.023 HD
ATOM     80  H   UNL     1     155.013 163.177 185.717  0.00  0.00    +0.023 HD
ATOM     81  H   UNL     1     154.148 164.624 185.302  0.00  0.00    +0.023 HD
ENDBRANCH  76  78
BRANCH  76  82
ATOM     82  C   UNL     1     151.951 164.356 187.043  0.00  0.00    +0.067 C 
ATOM     83  H   UNL     1     151.084 164.131 186.413  0.00  0.00    +0.060 HD
BRANCH  82  84
ATOM     84  C   UNL     1     152.193 165.882 186.831  0.00  0.00    -0.017 C 
ATOM     85  H   UNL     1     152.640 166.012 185.839  0.00  0.00    +0.032 HD
BRANCH  84  86
ATOM     86  C   UNL     1     150.833 166.602 186.763  0.00  0.00    -0.060 C 
ATOM     87  H   UNL     1     150.958 167.669 186.975  0.00  0.00    +0.023 HD
ATOM     88  H   UNL     1     150.135 166.204 187.509  0.00  0.00    +0.023 HD
ATOM     89  H   UNL     1     150.363 166.504 185.776  0.00  0.00    +0.023 HD
ENDBRANCH  84  86
BRANCH  84  90
ATOM     90  C   UNL     1     153.103 166.637 187.829  0.00  0.00    -0.041 C 
ATOM     91  H   UNL     1     153.789 167.272 187.251  0.00  0.00    +0.027 HD
ATOM     92  H   UNL     1     153.765 165.925 188.328  0.00  0.00    +0.027 HD
BRANCH  90  93
ATOM     93  C   UNL     1     152.420 167.496 188.891  0.00  0.00    +0.007 C 
ATOM     94  H   UNL     1     151.360 167.646 188.671  0.00  0.00    +0.034 HD
ATOM     95  H   UNL     1     152.892 168.484 188.942  0.00  0.00    +0.034 HD
BRANCH  93  96
ATOM     96  C   UNL     1     152.530 166.881 190.281  0.00  0.00    +0.139 C 
ATOM     97  O   UNL     1     153.616 166.431 190.665  0.00  0.00    -0.297 OA
BRANCH  96  98
ATOM     98  C   UNL     1     151.269 166.812 191.152  0.00  0.00    +0.041 C 
ATOM     99  H   UNL     1     151.222 165.781 191.506  0.00  0.00    +0.040 HD
BRANCH  98 100
ATOM    100  C   UNL     1     149.994 167.052 190.340  0.00  0.00    -0.053 C 
ATOM    101  H   UNL     1     150.065 167.945 189.711  0.00  0.00    +0.024 HD
ATOM    102  H   UNL     1     149.801 166.206 189.671  0.00  0.00    +0.024 HD
ATOM    103  H   UNL     1     149.120 167.148 190.996  0.00  0.00    +0.024 HD
ENDBRANCH  98 100
BRANCH  98 104
ATOM    104  C   UNL     1     151.372 167.711 192.409  0.00  0.00    +0.071 C 
ATOM    105  H   UNL     1     152.158 167.344 193.081  0.00  0.00    +0.061 HD
BRANCH 104 106
ATOM    106  C   UNL     1     151.631 169.216 192.152  0.00  0.00    -0.006 C 
ATOM    107  H   UNL     1     152.517 169.539 192.713  0.00  0.00    +0.033 HD
ATOM    108  H   UNL     1     151.918 169.333 191.099  0.00  0.00    +0.033 HD
BRANCH 106 109
ATOM    109  C   UNL     1     150.458 170.127 192.404  0.00  0.00    -0.067 C 
ATOM    110  C   UNL     1     149.942 170.928 191.462  0.00  0.00    -0.005 C 
ATOM    111  H   UNL     1     150.051 170.075 193.411  0.00  0.00    +0.059 HD
ATOM    112  H   UNL     1     150.367 170.897 190.460  0.00  0.00    +0.078 HD
BRANCH 110 113
ATOM    113  N   UNL     1     148.895 171.822 191.608  0.00  0.00    -0.284 N 
ATOM    114  C   UNL     1     148.904 172.943 192.438  0.00  0.00    +0.206 C 
ATOM    115  O   UNL     1     147.978 173.738 192.574  0.00  0.00    -0.279 OA
ATOM    116  H   UNL     1     149.842 173.089 192.987  0.00  0.00    +0.126 HD
BRANCH 113 117
ATOM    117  C   UNL     1     147.703 171.595 190.796  0.00  0.00    +0.007 C 
ATOM    118  H   UNL     1     146.886 172.199 191.210  0.00  0.00    +0.043 HD
ATOM    119  H   UNL     1     147.397 170.546 190.794  0.00  0.00    +0.043 HD
ATOM    120  H   UNL     1     147.900 171.904 189.763  0.00  0.00    +0.043 HD
ENDBRANCH 113 117
ENDBRANCH 110 113
ENDBRANCH 106 109
ENDBRANCH 104 106
BRANCH 104 121
ATOM    121  O   UNL     1     150.109 167.662 193.113  0.00  0.00    -0.379 OA
BRANCH 121 122
ATOM    122  C   UNL     1     149.966 166.507 193.937  0.00  0.00    +0.037 C 
ATOM    123  H   UNL     1     150.703 166.565 194.744  0.00  0.00    +0.052 HD
ATOM    124  H   UNL     1     148.970 166.466 194.380  0.00  0.00    +0.052 HD
ATOM    125  H   UNL     1     150.153 165.599 193.356  0.00  0.00    +0.052 HD
ENDBRANCH 121 122
ENDBRANCH 104 121
ENDBRANCH  98 104
ENDBRANCH  96  98
ENDBRANCH  93  96
ENDBRANCH  90  93
ENDBRANCH  84  90
ENDBRANCH  82  84
BRANCH  82 126
ATOM    126  O   UNL     1     151.545 164.150 188.411  0.00  0.00    -0.379 OA
BRANCH 126 127
ATOM    127  C   UNL     1     152.409 163.274 189.130  0.00  0.00    +0.037 C 
ATOM    128  H   UNL     1     153.154 163.850 189.690  0.00  0.00    +0.052 HD
ATOM    129  H   UNL     1     151.835 162.634 189.808  0.00  0.00    +0.052 HD
ATOM    130  H   UNL     1     152.934 162.637 188.410  0.00  0.00    +0.052 HD
ENDBRANCH 126 127
ENDBRANCH  82 126
ENDBRANCH  76  82
ENDBRANCH  25  76
BRANCH  31 131
ATOM    131  O   UNL     1     155.944 162.710 188.900  0.00  0.00    -0.379 OA
BRANCH 131 132
ATOM    132  C   UNL     1     155.972 163.898 189.687  0.00  0.00    +0.037 C 
ATOM    133  H   UNL     1     156.332 163.679 190.696  0.00  0.00    +0.052 HD
ATOM    134  H   UNL     1     156.655 164.610 189.214  0.00  0.00    +0.052 HD
ATOM    135  H   UNL     1     154.973 164.348 189.731  0.00  0.00    +0.052 HD
ENDBRANCH 131 132
ENDBRANCH  31 131
BRANCH  29 136
ATOM    136  O   UNL     1     156.293 159.168 189.273  0.00  0.00    -0.376 OA
BRANCH 136 137
ATOM    137  C   UNL     1     155.008 158.775 189.737  0.00  0.00    +0.037 C 
ATOM    138  H   UNL     1     154.800 159.223 190.715  0.00  0.00    +0.052 HD
ATOM    139  H   UNL     1     154.262 159.139 189.021  0.00  0.00    +0.052 HD
ATOM    140  H   UNL     1     154.934 157.686 189.791  0.00  0.00    +0.052 HD
ENDBRANCH 136 137
ENDBRANCH  29 136
BRANCH  16 141
ATOM    141  O   UNL     1     154.188 169.339 181.254  0.00  0.00    -0.379 OA
BRANCH 141 142
ATOM    142  C   UNL     1     153.400 170.349 180.641  0.00  0.00    +0.037 C 
ATOM    143  H   UNL     1     152.955 170.960 181.434  0.00  0.00    +0.052 HD
ATOM    144  H   UNL     1     152.591 169.921 180.039  0.00  0.00    +0.052 HD
ATOM    145  H   UNL     1     154.032 170.996 180.020  0.00  0.00    +0.052 HD
ENDBRANCH 141 142
ENDBRANCH  16 141
BRANCH   6 146
ATOM    146  O   UNL     1     158.337 164.718 183.411  0.00  0.00    -0.379 OA
BRANCH 146 147
ATOM    147  C   UNL     1     157.298 163.796 183.091  0.00  0.00    +0.037 C 
ATOM    148  H   UNL     1     156.974 163.269 183.993  0.00  0.00    +0.052 HD
ATOM    149  H   UNL     1     157.632 163.070 182.341  0.00  0.00    +0.052 HD
ATOM    150  H   UNL     1     156.450 164.354 182.683  0.00  0.00    +0.052 HD
ENDBRANCH 146 147
ENDBRANCH   6 146
BRANCH   4 151
ATOM    151  O   UNL     1     160.152 162.784 184.802  0.00  0.00    -0.376 OA
BRANCH 151 152
ATOM    152  C   UNL     1     160.349 161.465 185.302  0.00  0.00    +0.037 C 
ATOM    153  H   UNL     1     161.381 161.141 185.139  0.00  0.00    +0.052 HD
ATOM    154  H   UNL     1     160.161 161.480 186.375  0.00  0.00    +0.052 HD
ATOM    155  H   UNL     1     159.657 160.761 184.832  0.00  0.00    +0.052 HD
ENDBRANCH 151 152
ENDBRANCH   4 151
TORSDOF 33
ENDMDL
MODEL 7
REMARK VINA RESULT:      -5.0      2.543      7.788
REMARK  Name = Reidispongiolide A_conf3
REMARK  33 active torsions:
REMARK  status: ('A' for Active; 'I' for Inactive)
REMARK    1  A    between atoms: C_1  and  C_2
REMARK    2  A    between atoms: C_5  and  O_67
REMARK    3  A    between atoms: C_7  and  O_65
REMARK    4  A    between atoms: C_8  and  C_64
REMARK    5  A    between atoms: C_17  and  O_62
REMARK    6  A    between atoms: C_19  and  C_61
REMARK    7  A    between atoms: C_26  and  C_38
REMARK    8  A    between atoms: C_27  and  C_37
REMARK    9  A    between atoms: C_30  and  O_35
REMARK   10  A    between atoms: C_32  and  O_33
REMARK   11  A    between atoms: O_33  and  C_34
REMARK   12  A    between atoms: O_35  and  C_36
REMARK   13  A    between atoms: C_38  and  C_39
REMARK   14  A    between atoms: C_38  and  C_40
REMARK   15  A    between atoms: C_40  and  C_41
REMARK   16  A    between atoms: C_40  and  O_59
REMARK   17  A    between atoms: C_41  and  C_42
REMARK   18  A    between atoms: C_41  and  C_43
REMARK   19  A    between atoms: C_43  and  C_44
REMARK   20  A    between atoms: C_44  and  C_45
REMARK   21  A    between atoms: C_45  and  C_47
REMARK   22  A    between atoms: C_47  and  C_48
REMARK   23  A    between atoms: C_47  and  C_49
REMARK   24  A    between atoms: C_49  and  C_50
REMARK   25  A    between atoms: C_49  and  O_57
REMARK   26  A    between atoms: C_50  and  C_51
REMARK   27  A    between atoms: C_52  and  N_53
REMARK   28  A    between atoms: N_53  and  C_54
REMARK   29  A    between atoms: O_57  and  C_58
REMARK   30  A    between atoms: O_59  and  C_60
REMARK   31  A    between atoms: O_62  and  C_63
REMARK   32  A    between atoms: O_65  and  C_66
REMARK   33  A    between atoms: O_67  and  C_68
REMARK                            x       y       z     vdW  Elec       q    Type
REMARK                         _______ _______ _______ _____ _____    ______ ____
ROOT
ATOM      1  C   UNL     1     151.237 167.357 189.840  0.00  0.00    +0.001 C 
ATOM      2  C   UNL     1     150.717 166.469 188.714  0.00  0.00    -0.080 C 
ATOM      3  C   UNL     1     151.120 165.213 188.449  0.00  0.00    -0.059 C 
ATOM      4  C   UNL     1     150.727 164.276 187.335  0.00  0.00    +0.079 C 
ATOM      5  C   UNL     1     149.809 164.798 186.213  0.00  0.00    +0.004 C 
ATOM      6  C   UNL     1     148.317 164.995 186.563  0.00  0.00    +0.067 C 
ATOM      7  C   UNL     1     147.576 165.940 185.568  0.00  0.00    +0.020 C 
ATOM      8  C   UNL     1     147.624 165.458 184.080  0.00  0.00    +0.112 C 
ATOM      9  C   UNL     1     146.517 164.468 183.659  0.00  0.00    +0.006 C 
ATOM     10  C   UNL     1     145.273 165.143 183.144  0.00  0.00    -0.057 C 
ATOM     11  C   UNL     1     145.319 166.435 182.779  0.00  0.00    +0.022 C 
ATOM     12  C   UNL     1     146.560 167.229 182.788  0.00  0.00    +0.332 C 
ATOM     13  O   UNL     1     146.570 168.388 182.393  0.00  0.00    -0.246 OA
ATOM     14  O   UNL     1     147.688 166.589 183.172  0.00  0.00    -0.458 OA
ATOM     15  C   UNL     1     144.056 164.278 182.846  0.00  0.00    -0.004 C 
ATOM     16  C   UNL     1     142.644 164.600 183.422  0.00  0.00    +0.066 C 
ATOM     17  C   UNL     1     142.344 163.959 184.803  0.00  0.00    -0.005 C 
ATOM     18  C   UNL     1     142.601 164.756 186.070  0.00  0.00    -0.070 C 
ATOM     19  C   UNL     1     141.649 164.844 187.026  0.00  0.00    -0.062 C 
ATOM     20  C   UNL     1     141.787 165.541 188.288  0.00  0.00    -0.055 C 
ATOM     21  C   UNL     1     142.705 165.221 189.212  0.00  0.00    +0.023 C 
ATOM     22  C   UNL     1     142.877 166.087 190.388  0.00  0.00    +0.332 C 
ATOM     23  O   UNL     1     142.022 166.830 190.847  0.00  0.00    -0.246 OA
ATOM     24  O   UNL     1     144.161 165.978 190.801  0.00  0.00    -0.457 OA
ATOM     25  C   UNL     1     144.671 167.075 191.592  0.00  0.00    +0.114 C 
ATOM     26  C   UNL     1     145.432 166.551 192.851  0.00  0.00    +0.012 C 
ATOM     27  C   UNL     1     146.814 165.988 192.615  0.00  0.00    -0.079 C 
ATOM     28  C   UNL     1     147.925 166.508 193.177  0.00  0.00    -0.059 C 
ATOM     29  C   UNL     1     149.312 165.951 193.020  0.00  0.00    +0.079 C 
ATOM     30  C   UNL     1     149.901 165.996 191.596  0.00  0.00    +0.004 C 
ATOM     31  C   UNL     1     150.318 167.394 191.101  0.00  0.00    +0.067 C 
ATOM     32  H   UNL     1     151.252 168.373 189.415  0.00  0.00    +0.037 HD
ATOM     33  H   UNL     1     149.964 166.943 188.092  0.00  0.00    +0.057 HD
ATOM     34  H   UNL     1     151.858 164.764 189.110  0.00  0.00    +0.059 HD
ATOM     35  H   UNL     1     151.683 164.017 186.853  0.00  0.00    +0.064 HD
ATOM     36  H   UNL     1     149.867 164.067 185.400  0.00  0.00    +0.032 HD
ATOM     37  H   UNL     1     150.246 165.725 185.832  0.00  0.00    +0.032 HD
ATOM     38  H   UNL     1     148.238 165.431 187.566  0.00  0.00    +0.060 HD
ATOM     39  H   UNL     1     146.526 165.956 185.865  0.00  0.00    +0.036 HD
ATOM     40  H   UNL     1     148.574 164.940 183.916  0.00  0.00    +0.074 HD
ATOM     41  H   UNL     1     146.270 163.788 184.480  0.00  0.00    +0.035 HD
ATOM     42  H   UNL     1     146.904 163.845 182.841  0.00  0.00    +0.035 HD
ATOM     43  H   UNL     1     144.465 166.947 182.344  0.00  0.00    +0.069 HD
ATOM     44  H   UNL     1     144.294 163.224 183.058  0.00  0.00    +0.034 HD
ATOM     45  H   UNL     1     143.948 164.313 181.748  0.00  0.00    +0.034 HD
ATOM     46  H   UNL     1     141.960 164.106 182.716  0.00  0.00    +0.060 HD
ATOM     47  H   UNL     1     142.881 163.002 184.884  0.00  0.00    +0.034 HD
ATOM     48  H   UNL     1     141.281 163.686 184.789  0.00  0.00    +0.034 HD
ATOM     49  H   UNL     1     140.669 164.394 186.865  0.00  0.00    +0.062 HD
ATOM     50  H   UNL     1     141.101 166.371 188.452  0.00  0.00    +0.062 HD
ATOM     51  H   UNL     1     143.404 164.405 189.088  0.00  0.00    +0.069 HD
ATOM     52  H   UNL     1     143.827 167.632 192.014  0.00  0.00    +0.074 HD
ATOM     53  H   UNL     1     145.531 167.424 193.512  0.00  0.00    +0.038 HD
ATOM     54  H   UNL     1     146.891 165.106 191.978  0.00  0.00    +0.057 HD
ATOM     55  H   UNL     1     147.826 167.376 193.832  0.00  0.00    +0.059 HD
ATOM     56  H   UNL     1     149.287 164.899 193.342  0.00  0.00    +0.064 HD
ATOM     57  H   UNL     1     149.185 165.539 190.902  0.00  0.00    +0.032 HD
ATOM     58  H   UNL     1     150.795 165.360 191.614  0.00  0.00    +0.032 HD
ATOM     59  H   UNL     1     150.879 167.902 191.898  0.00  0.00    +0.060 HD
ENDROOT
BRANCH   1  60
ATOM     60  C   UNL     1     152.689 167.055 190.239  0.00  0.00    -0.057 C 
ATOM     61  H   UNL     1     152.976 166.051 189.912  0.00  0.00    +0.024 HD
ATOM     62  H   UNL     1     152.812 167.091 191.327  0.00  0.00    +0.024 HD
ATOM     63  H   UNL     1     153.400 167.759 189.797  0.00  0.00    +0.024 HD
ENDBRANCH   1  60
BRANCH  26  64
ATOM     64  C   UNL     1     144.582 165.510 193.594  0.00  0.00    -0.056 C 
ATOM     65  H   UNL     1     144.036 165.965 194.430  0.00  0.00    +0.024 HD
ATOM     66  H   UNL     1     145.206 164.708 193.995  0.00  0.00    +0.024 HD
ATOM     67  H   UNL     1     143.858 165.051 192.917  0.00  0.00    +0.024 HD
ENDBRANCH  26  64
BRANCH  18  68
ATOM     68  C   UNL     1     143.955 165.390 186.177  0.00  0.00    -0.043 C 
ATOM     69  H   UNL     1     143.861 166.463 186.356  0.00  0.00    +0.027 HD
ATOM     70  H   UNL     1     144.568 165.005 186.993  0.00  0.00    +0.027 HD
ATOM     71  H   UNL     1     144.497 165.211 185.248  0.00  0.00    +0.027 HD
ENDBRANCH  18  68
BRANCH   7  72
ATOM     72  C   UNL     1     148.077 167.380 185.749  0.00  0.00    -0.057 C 
ATOM     73  H   UNL     1     147.238 168.072 185.840  0.00  0.00    +0.023 HD
ATOM     74  H   UNL     1     148.707 167.490 186.636  0.00  0.00    +0.023 HD
ATOM     75  H   UNL     1     148.654 167.701 184.878  0.00  0.00    +0.023 HD
ENDBRANCH   7  72
BRANCH  25  76
ATOM     76  C   UNL     1     145.488 168.040 190.663  0.00  0.00    +0.020 C 
ATOM     77  H   UNL     1     146.311 168.437 191.270  0.00  0.00    +0.036 HD
BRANCH  76  78
ATOM     78  C   UNL     1     146.112 167.288 189.481  0.00  0.00    -0.057 C 
ATOM     79  H   UNL     1     147.058 167.725 189.156  0.00  0.00    +0.023 HD
ATOM     80  H   UNL     1     146.271 166.239 189.735  0.00  0.00    +0.023 HD
ATOM     81  H   UNL     1     145.456 167.279 188.609  0.00  0.00    +0.023 HD
ENDBRANCH  76  78
BRANCH  76  82
ATOM     82  C   UNL     1     144.596 169.267 190.253  0.00  0.00    +0.067 C 
ATOM     83  H   UNL     1     143.991 168.979 189.387  0.00  0.00    +0.060 HD
BRANCH  82  84
ATOM     84  C   UNL     1     145.260 170.612 189.827  0.00  0.00    -0.017 C 
ATOM     85  H   UNL     1     144.536 171.413 190.017  0.00  0.00    +0.032 HD
BRANCH  84  86
ATOM     86  C   UNL     1     146.448 170.905 190.763  0.00  0.00    -0.060 C 
ATOM     87  H   UNL     1     146.255 170.495 191.760  0.00  0.00    +0.023 HD
ATOM     88  H   UNL     1     146.602 171.985 190.881  0.00  0.00    +0.023 HD
ATOM     89  H   UNL     1     147.384 170.470 190.390  0.00  0.00    +0.023 HD
ENDBRANCH  84  86
BRANCH  84  90
ATOM     90  C   UNL     1     145.731 170.779 188.363  0.00  0.00    -0.041 C 
ATOM     91  H   UNL     1     145.247 169.999 187.758  0.00  0.00    +0.027 HD
ATOM     92  H   UNL     1     146.795 170.541 188.293  0.00  0.00    +0.027 HD
BRANCH  90  93
ATOM     93  C   UNL     1     145.489 172.132 187.699  0.00  0.00    +0.007 C 
ATOM     94  H   UNL     1     146.008 172.940 188.220  0.00  0.00    +0.034 HD
ATOM     95  H   UNL     1     144.418 172.371 187.701  0.00  0.00    +0.034 HD
BRANCH  93  96
ATOM     96  C   UNL     1     145.941 172.144 186.243  0.00  0.00    +0.139 C 
ATOM     97  O   UNL     1     146.127 173.223 185.670  0.00  0.00    -0.297 OA
BRANCH  96  98
ATOM     98  C   UNL     1     146.119 170.801 185.523  0.00  0.00    +0.041 C 
ATOM     99  H   UNL     1     146.310 170.074 186.316  0.00  0.00    +0.040 HD
BRANCH  98 100
ATOM    100  C   UNL     1     147.353 170.791 184.617  0.00  0.00    -0.053 C 
ATOM    101  H   UNL     1     147.149 171.230 183.635  0.00  0.00    +0.024 HD
ATOM    102  H   UNL     1     148.163 171.377 185.067  0.00  0.00    +0.024 HD
ATOM    103  H   UNL     1     147.733 169.772 184.479  0.00  0.00    +0.024 HD
ENDBRANCH  98 100
BRANCH  98 104
ATOM    104  C   UNL     1     144.827 170.344 184.802  0.00  0.00    +0.071 C 
ATOM    105  H   UNL     1     144.985 170.308 183.716  0.00  0.00    +0.061 HD
BRANCH 104 106
ATOM    106  C   UNL     1     144.246 168.978 185.244  0.00  0.00    -0.006 C 
ATOM    107  H   UNL     1     143.937 168.405 184.360  0.00  0.00    +0.033 HD
ATOM    108  H   UNL     1     145.064 168.389 185.677  0.00  0.00    +0.033 HD
BRANCH 106 109
ATOM    109  C   UNL     1     143.144 169.045 186.268  0.00  0.00    -0.067 C 
ATOM    110  C   UNL     1     141.920 168.543 186.055  0.00  0.00    -0.005 C 
ATOM    111  H   UNL     1     143.423 169.521 187.205  0.00  0.00    +0.059 HD
ATOM    112  H   UNL     1     141.720 168.036 185.113  0.00  0.00    +0.078 HD
BRANCH 110 113
ATOM    113  N   UNL     1     140.837 168.590 186.917  0.00  0.00    -0.284 N 
ATOM    114  C   UNL     1     140.883 169.006 188.247  0.00  0.00    +0.206 C 
ATOM    115  O   UNL     1     139.927 169.048 189.016  0.00  0.00    -0.279 OA
ATOM    116  H   UNL     1     141.877 169.324 188.584  0.00  0.00    +0.126 HD
BRANCH 113 117
ATOM    117  C   UNL     1     139.535 168.211 186.375  0.00  0.00    +0.007 C 
ATOM    118  H   UNL     1     139.547 168.394 185.294  0.00  0.00    +0.043 HD
ATOM    119  H   UNL     1     138.718 168.787 186.818  0.00  0.00    +0.043 HD
ATOM    120  H   UNL     1     139.355 167.147 186.566  0.00  0.00    +0.043 HD
ENDBRANCH 113 117
ENDBRANCH 110 113
ENDBRANCH 106 109
ENDBRANCH 104 106
BRANCH 104 121
ATOM    121  O   UNL     1     143.782 171.304 185.080  0.00  0.00    -0.379 OA
BRANCH 121 122
ATOM    122  C   UNL     1     143.187 171.848 183.904  0.00  0.00    +0.037 C 
ATOM    123  H   UNL     1     142.549 171.082 183.453  0.00  0.00    +0.052 HD
ATOM    124  H   UNL     1     142.569 172.714 184.145  0.00  0.00    +0.052 HD
ATOM    125  H   UNL     1     143.959 172.132 183.182  0.00  0.00    +0.052 HD
ENDBRANCH 121 122
ENDBRANCH 104 121
ENDBRANCH  98 104
ENDBRANCH  96  98
ENDBRANCH  93  96
ENDBRANCH  90  93
ENDBRANCH  84  90
ENDBRANCH  82  84
BRANCH  82 126
ATOM    126  O   UNL     1     143.683 169.538 191.335  0.00  0.00    -0.379 OA
BRANCH 126 127
ATOM    127  C   UNL     1     142.752 170.576 191.042  0.00  0.00    +0.037 C 
ATOM    128  H   UNL     1     141.827 170.429 191.608  0.00  0.00    +0.052 HD
ATOM    129  H   UNL     1     143.183 171.558 191.265  0.00  0.00    +0.052 HD
ATOM    130  H   UNL     1     142.514 170.535 189.973  0.00  0.00    +0.052 HD
ENDBRANCH 126 127
ENDBRANCH  82 126
ENDBRANCH  76  82
ENDBRANCH  25  76
BRANCH  31 131
ATOM    131  O   UNL     1     149.137 168.154 190.787  0.00  0.00    -0.379 OA
BRANCH 131 132
ATOM    132  C   UNL     1     149.149 169.441 191.398  0.00  0.00    +0.037 C 
ATOM    133  H   UNL     1     148.846 169.369 192.447  0.00  0.00    +0.052 HD
ATOM    134  H   UNL     1     150.167 169.838 191.350  0.00  0.00    +0.052 HD
ATOM    135  H   UNL     1     148.481 170.124 190.859  0.00  0.00    +0.052 HD
ENDBRANCH 131 132
ENDBRANCH  31 131
BRANCH  29 136
ATOM    136  O   UNL     1     150.168 166.708 193.895  0.00  0.00    -0.376 OA
BRANCH 136 137
ATOM    137  C   UNL     1     150.896 165.895 194.805  0.00  0.00    +0.037 C 
ATOM    138  H   UNL     1     150.236 165.152 195.268  0.00  0.00    +0.052 HD
ATOM    139  H   UNL     1     151.674 165.368 194.243  0.00  0.00    +0.052 HD
ATOM    140  H   UNL     1     151.376 166.509 195.571  0.00  0.00    +0.052 HD
ENDBRANCH 136 137
ENDBRANCH  29 136
BRANCH  16 141
ATOM    141  O   UNL     1     142.378 166.004 183.359  0.00  0.00    -0.379 OA
BRANCH 141 142
ATOM    142  C   UNL     1     141.016 166.321 183.110  0.00  0.00    +0.037 C 
ATOM    143  H   UNL     1     140.983 167.264 182.554  0.00  0.00    +0.052 HD
ATOM    144  H   UNL     1     140.454 166.448 184.042  0.00  0.00    +0.052 HD
ATOM    145  H   UNL     1     140.554 165.539 182.494  0.00  0.00    +0.052 HD
ENDBRANCH 141 142
ENDBRANCH  16 141
BRANCH   6 146
ATOM    146  O   UNL     1     147.661 163.721 186.537  0.00  0.00    -0.379 OA
BRANCH 146 147
ATOM    147  C   UNL     1     146.793 163.531 187.651  0.00  0.00    +0.037 C 
ATOM    148  H   UNL     1     145.821 163.162 187.311  0.00  0.00    +0.052 HD
ATOM    149  H   UNL     1     146.656 164.465 188.208  0.00  0.00    +0.052 HD
ATOM    150  H   UNL     1     147.240 162.789 188.319  0.00  0.00    +0.052 HD
ENDBRANCH 146 147
ENDBRANCH   6 146
BRANCH   4 151
ATOM    151  O   UNL     1     150.213 163.107 187.980  0.00  0.00    -0.376 OA
BRANCH 151 152
ATOM    152  C   UNL     1     150.609 161.894 187.347  0.00  0.00    +0.037 C 
ATOM    153  H   UNL     1     151.366 161.377 187.946  0.00  0.00    +0.052 HD
ATOM    154  H   UNL     1     149.732 161.251 187.275  0.00  0.00    +0.052 HD
ATOM    155  H   UNL     1     150.992 162.084 186.342  0.00  0.00    +0.052 HD
ENDBRANCH 151 152
ENDBRANCH   4 151
TORSDOF 33
ENDMDL
MODEL 8
REMARK VINA RESULT:      -5.0      2.012      3.247
REMARK  Name = Reidispongiolide A_conf3
REMARK  33 active torsions:
REMARK  status: ('A' for Active; 'I' for Inactive)
REMARK    1  A    between atoms: C_1  and  C_2
REMARK    2  A    between atoms: C_5  and  O_67
REMARK    3  A    between atoms: C_7  and  O_65
REMARK    4  A    between atoms: C_8  and  C_64
REMARK    5  A    between atoms: C_17  and  O_62
REMARK    6  A    between atoms: C_19  and  C_61
REMARK    7  A    between atoms: C_26  and  C_38
REMARK    8  A    between atoms: C_27  and  C_37
REMARK    9  A    between atoms: C_30  and  O_35
REMARK   10  A    between atoms: C_32  and  O_33
REMARK   11  A    between atoms: O_33  and  C_34
REMARK   12  A    between atoms: O_35  and  C_36
REMARK   13  A    between atoms: C_38  and  C_39
REMARK   14  A    between atoms: C_38  and  C_40
REMARK   15  A    between atoms: C_40  and  C_41
REMARK   16  A    between atoms: C_40  and  O_59
REMARK   17  A    between atoms: C_41  and  C_42
REMARK   18  A    between atoms: C_41  and  C_43
REMARK   19  A    between atoms: C_43  and  C_44
REMARK   20  A    between atoms: C_44  and  C_45
REMARK   21  A    between atoms: C_45  and  C_47
REMARK   22  A    between atoms: C_47  and  C_48
REMARK   23  A    between atoms: C_47  and  C_49
REMARK   24  A    between atoms: C_49  and  C_50
REMARK   25  A    between atoms: C_49  and  O_57
REMARK   26  A    between atoms: C_50  and  C_51
REMARK   27  A    between atoms: C_52  and  N_53
REMARK   28  A    between atoms: N_53  and  C_54
REMARK   29  A    between atoms: O_57  and  C_58
REMARK   30  A    between atoms: O_59  and  C_60
REMARK   31  A    between atoms: O_62  and  C_63
REMARK   32  A    between atoms: O_65  and  C_66
REMARK   33  A    between atoms: O_67  and  C_68
REMARK                            x       y       z     vdW  Elec       q    Type
REMARK                         _______ _______ _______ _____ _____    ______ ____
ROOT
ATOM      1  C   UNL     1     143.684 169.220 187.128  0.00  0.00    +0.001 C 
ATOM      2  C   UNL     1     144.756 168.480 186.335  0.00  0.00    -0.080 C 
ATOM      3  C   UNL     1     145.366 168.930 185.223  0.00  0.00    -0.059 C 
ATOM      4  C   UNL     1     146.381 168.264 184.329  0.00  0.00    +0.079 C 
ATOM      5  C   UNL     1     146.751 166.791 184.591  0.00  0.00    +0.004 C 
ATOM      6  C   UNL     1     147.648 166.501 185.815  0.00  0.00    +0.067 C 
ATOM      7  C   UNL     1     147.586 165.012 186.278  0.00  0.00    +0.020 C 
ATOM      8  C   UNL     1     147.997 163.986 185.171  0.00  0.00    +0.112 C 
ATOM      9  C   UNL     1     149.507 163.685 185.061  0.00  0.00    +0.006 C 
ATOM     10  C   UNL     1     149.957 162.547 185.939  0.00  0.00    -0.057 C 
ATOM     11  C   UNL     1     149.047 161.703 186.455  0.00  0.00    +0.022 C 
ATOM     12  C   UNL     1     147.609 161.787 186.147  0.00  0.00    +0.332 C 
ATOM     13  O   UNL     1     146.819 160.963 186.592  0.00  0.00    -0.246 OA
ATOM     14  O   UNL     1     147.227 162.762 185.291  0.00  0.00    -0.458 OA
ATOM     15  C   UNL     1     151.449 162.258 186.035  0.00  0.00    -0.004 C 
ATOM     16  C   UNL     1     152.186 162.131 187.403  0.00  0.00    +0.066 C 
ATOM     17  C   UNL     1     152.748 163.464 187.964  0.00  0.00    -0.005 C 
ATOM     18  C   UNL     1     151.917 164.274 188.944  0.00  0.00    -0.070 C 
ATOM     19  C   UNL     1     152.463 164.719 190.098  0.00  0.00    -0.062 C 
ATOM     20  C   UNL     1     151.786 165.526 191.092  0.00  0.00    -0.055 C 
ATOM     21  C   UNL     1     151.290 166.747 190.838  0.00  0.00    +0.023 C 
ATOM     22  C   UNL     1     150.478 167.421 191.862  0.00  0.00    +0.332 C 
ATOM     23  O   UNL     1     150.533 167.202 193.063  0.00  0.00    -0.246 OA
ATOM     24  O   UNL     1     149.611 168.245 191.228  0.00  0.00    -0.457 OA
ATOM     25  C   UNL     1     148.423 168.611 191.967  0.00  0.00    +0.114 C 
ATOM     26  C   UNL     1     148.158 170.147 191.875  0.00  0.00    +0.012 C 
ATOM     27  C   UNL     1     147.585 170.653 190.571  0.00  0.00    -0.079 C 
ATOM     28  C   UNL     1     146.391 171.275 190.485  0.00  0.00    -0.059 C 
ATOM     29  C   UNL     1     145.806 171.846 189.225  0.00  0.00    +0.079 C 
ATOM     30  C   UNL     1     145.459 170.829 188.120  0.00  0.00    +0.004 C 
ATOM     31  C   UNL     1     144.220 169.955 188.396  0.00  0.00    +0.067 C 
ATOM     32  H   UNL     1     142.993 168.434 187.472  0.00  0.00    +0.037 HD
ATOM     33  H   UNL     1     145.004 167.503 186.736  0.00  0.00    +0.057 HD
ATOM     34  H   UNL     1     145.108 169.925 184.866  0.00  0.00    +0.059 HD
ATOM     35  H   UNL     1     145.917 168.290 183.331  0.00  0.00    +0.064 HD
ATOM     36  H   UNL     1     147.280 166.441 183.699  0.00  0.00    +0.032 HD
ATOM     37  H   UNL     1     145.819 166.221 184.648  0.00  0.00    +0.032 HD
ATOM     38  H   UNL     1     147.327 167.130 186.653  0.00  0.00    +0.060 HD
ATOM     39  H   UNL     1     148.301 164.903 187.096  0.00  0.00    +0.036 HD
ATOM     40  H   UNL     1     147.695 164.388 184.199  0.00  0.00    +0.074 HD
ATOM     41  H   UNL     1     150.098 164.582 185.266  0.00  0.00    +0.035 HD
ATOM     42  H   UNL     1     149.726 163.394 184.025  0.00  0.00    +0.035 HD
ATOM     43  H   UNL     1     149.328 160.833 187.041  0.00  0.00    +0.069 HD
ATOM     44  H   UNL     1     152.001 162.967 185.399  0.00  0.00    +0.034 HD
ATOM     45  H   UNL     1     151.581 161.286 185.530  0.00  0.00    +0.034 HD
ATOM     46  H   UNL     1     153.069 161.520 187.162  0.00  0.00    +0.060 HD
ATOM     47  H   UNL     1     153.030 164.121 187.127  0.00  0.00    +0.034 HD
ATOM     48  H   UNL     1     153.696 163.212 188.457  0.00  0.00    +0.034 HD
ATOM     49  H   UNL     1     153.486 164.447 190.359  0.00  0.00    +0.062 HD
ATOM     50  H   UNL     1     151.682 165.079 192.079  0.00  0.00    +0.062 HD
ATOM     51  H   UNL     1     151.372 167.226 189.872  0.00  0.00    +0.069 HD
ATOM     52  H   UNL     1     148.604 168.445 193.035  0.00  0.00    +0.074 HD
ATOM     53  H   UNL     1     147.429 170.362 192.670  0.00  0.00    +0.038 HD
ATOM     54  H   UNL     1     148.194 170.521 189.676  0.00  0.00    +0.057 HD
ATOM     55  H   UNL     1     145.807 171.420 191.396  0.00  0.00    +0.059 HD
ATOM     56  H   UNL     1     146.535 172.557 188.811  0.00  0.00    +0.064 HD
ATOM     57  H   UNL     1     146.338 170.202 187.927  0.00  0.00    +0.032 HD
ATOM     58  H   UNL     1     145.266 171.416 187.212  0.00  0.00    +0.032 HD
ATOM     59  H   UNL     1     143.408 170.595 188.770  0.00  0.00    +0.060 HD
ENDROOT
BRANCH   1  60
ATOM     60  C   UNL     1     142.833 170.171 186.273  0.00  0.00    -0.057 C 
ATOM     61  H   UNL     1     143.422 170.567 185.439  0.00  0.00    +0.024 HD
ATOM     62  H   UNL     1     142.488 171.026 186.863  0.00  0.00    +0.024 HD
ATOM     63  H   UNL     1     141.954 169.679 185.848  0.00  0.00    +0.024 HD
ENDBRANCH   1  60
BRANCH  26  64
ATOM     64  C   UNL     1     149.436 170.931 192.204  0.00  0.00    -0.056 C 
ATOM     65  H   UNL     1     149.223 171.998 192.349  0.00  0.00    +0.024 HD
ATOM     66  H   UNL     1     150.171 170.840 191.400  0.00  0.00    +0.024 HD
ATOM     67  H   UNL     1     149.901 170.545 193.114  0.00  0.00    +0.024 HD
ENDBRANCH  26  64
BRANCH  18  68
ATOM     68  C   UNL     1     150.502 164.546 188.529  0.00  0.00    -0.043 C 
ATOM     69  H   UNL     1     149.818 163.858 189.030  0.00  0.00    +0.027 HD
ATOM     70  H   UNL     1     150.148 165.548 188.772  0.00  0.00    +0.027 HD
ATOM     71  H   UNL     1     150.429 164.426 187.447  0.00  0.00    +0.027 HD
ENDBRANCH  18  68
BRANCH   7  72
ATOM     72  C   UNL     1     146.211 164.717 186.891  0.00  0.00    -0.057 C 
ATOM     73  H   UNL     1     145.706 163.919 186.344  0.00  0.00    +0.023 HD
ATOM     74  H   UNL     1     146.281 164.419 187.941  0.00  0.00    +0.023 HD
ATOM     75  H   UNL     1     145.563 165.596 186.829  0.00  0.00    +0.023 HD
ENDBRANCH   7  72
BRANCH  25  76
ATOM     76  C   UNL     1     147.234 167.692 191.515  0.00  0.00    +0.020 C 
ATOM     77  H   UNL     1     146.356 168.341 191.423  0.00  0.00    +0.036 HD
BRANCH  76  78
ATOM     78  C   UNL     1     147.496 167.074 190.136  0.00  0.00    -0.057 C 
ATOM     79  H   UNL     1     148.275 167.600 189.580  0.00  0.00    +0.023 HD
ATOM     80  H   UNL     1     147.773 166.023 190.232  0.00  0.00    +0.023 HD
ATOM     81  H   UNL     1     146.604 167.083 189.507  0.00  0.00    +0.023 HD
ENDBRANCH  76  78
BRANCH  76  82
ATOM     82  C   UNL     1     146.910 166.648 192.643  0.00  0.00    +0.067 C 
ATOM     83  H   UNL     1     147.714 165.905 192.667  0.00  0.00    +0.060 HD
BRANCH  82  84
ATOM     84  C   UNL     1     145.605 165.797 192.572  0.00  0.00    -0.017 C 
ATOM     85  H   UNL     1     145.759 164.903 193.187  0.00  0.00    +0.032 HD
BRANCH  84  86
ATOM     86  C   UNL     1     144.462 166.571 193.255  0.00  0.00    -0.060 C 
ATOM     87  H   UNL     1     144.668 166.685 194.325  0.00  0.00    +0.023 HD
ATOM     88  H   UNL     1     143.510 166.034 193.164  0.00  0.00    +0.023 HD
ATOM     89  H   UNL     1     144.327 167.572 192.826  0.00  0.00    +0.023 HD
ENDBRANCH  84  86
BRANCH  84  90
ATOM     90  C   UNL     1     145.112 165.304 191.191  0.00  0.00    -0.041 C 
ATOM     91  H   UNL     1     145.514 164.295 191.025  0.00  0.00    +0.027 HD
ATOM     92  H   UNL     1     145.576 165.903 190.403  0.00  0.00    +0.027 HD
BRANCH  90  93
ATOM     93  C   UNL     1     143.603 165.273 190.955  0.00  0.00    +0.007 C 
ATOM     94  H   UNL     1     143.126 166.209 191.252  0.00  0.00    +0.034 HD
ATOM     95  H   UNL     1     143.144 164.466 191.539  0.00  0.00    +0.034 HD
BRANCH  93  96
ATOM     96  C   UNL     1     143.258 165.012 189.493  0.00  0.00    +0.139 C 
ATOM     97  O   UNL     1     143.389 165.918 188.664  0.00  0.00    -0.297 OA
BRANCH  96  98
ATOM     98  C   UNL     1     142.725 163.627 189.105  0.00  0.00    +0.041 C 
ATOM     99  H   UNL     1     142.040 163.348 189.909  0.00  0.00    +0.040 HD
BRANCH  98 100
ATOM    100  C   UNL     1     143.829 162.567 189.086  0.00  0.00    -0.053 C 
ATOM    101  H   UNL     1     144.249 162.425 188.086  0.00  0.00    +0.024 HD
ATOM    102  H   UNL     1     144.656 162.865 189.740  0.00  0.00    +0.024 HD
ATOM    103  H   UNL     1     143.458 161.604 189.457  0.00  0.00    +0.024 HD
ENDBRANCH  98 100
BRANCH  98 104
ATOM    104  C   UNL     1     141.889 163.662 187.802  0.00  0.00    +0.071 C 
ATOM    105  H   UNL     1     141.648 164.697 187.527  0.00  0.00    +0.061 HD
BRANCH 104 106
ATOM    106  C   UNL     1     142.523 162.978 186.566  0.00  0.00    -0.006 C 
ATOM    107  H   UNL     1     143.392 162.385 186.879  0.00  0.00    +0.033 HD
ATOM    108  H   UNL     1     141.808 162.235 186.189  0.00  0.00    +0.033 HD
BRANCH 106 109
ATOM    109  C   UNL     1     142.866 163.895 185.423  0.00  0.00    -0.067 C 
ATOM    110  C   UNL     1     142.361 165.131 185.304  0.00  0.00    -0.005 C 
ATOM    111  H   UNL     1     143.570 163.483 184.703  0.00  0.00    +0.059 HD
ATOM    112  H   UNL     1     141.698 165.502 186.083  0.00  0.00    +0.078 HD
BRANCH 110 113
ATOM    113  N   UNL     1     142.587 166.030 184.274  0.00  0.00    -0.284 N 
ATOM    114  C   UNL     1     142.000 167.290 184.163  0.00  0.00    +0.206 C 
ATOM    115  O   UNL     1     142.194 168.090 183.251  0.00  0.00    -0.279 OA
ATOM    116  H   UNL     1     141.325 167.546 184.988  0.00  0.00    +0.126 HD
BRANCH 113 117
ATOM    117  C   UNL     1     143.547 165.641 183.245  0.00  0.00    +0.007 C 
ATOM    118  H   UNL     1     143.855 166.545 182.705  0.00  0.00    +0.043 HD
ATOM    119  H   UNL     1     143.124 164.932 182.530  0.00  0.00    +0.043 HD
ATOM    120  H   UNL     1     144.422 165.180 183.718  0.00  0.00    +0.043 HD
ENDBRANCH 113 117
ENDBRANCH 110 113
ENDBRANCH 106 109
ENDBRANCH 104 106
BRANCH 104 121
ATOM    121  O   UNL     1     140.651 162.951 188.031  0.00  0.00    -0.379 OA
BRANCH 121 122
ATOM    122  C   UNL     1     139.552 163.475 187.289  0.00  0.00    +0.037 C 
ATOM    123  H   UNL     1     139.496 162.947 186.332  0.00  0.00    +0.052 HD
ATOM    124  H   UNL     1     138.613 163.323 187.823  0.00  0.00    +0.052 HD
ATOM    125  H   UNL     1     139.699 164.542 187.093  0.00  0.00    +0.052 HD
ENDBRANCH 121 122
ENDBRANCH 104 121
ENDBRANCH  98 104
ENDBRANCH  96  98
ENDBRANCH  93  96
ENDBRANCH  90  93
ENDBRANCH  84  90
ENDBRANCH  82  84
BRANCH  82 126
ATOM    126  O   UNL     1     146.931 167.336 193.910  0.00  0.00    -0.379 OA
BRANCH 126 127
ATOM    127  C   UNL     1     147.592 166.604 194.938  0.00  0.00    +0.037 C 
ATOM    128  H   UNL     1     148.526 166.175 194.560  0.00  0.00    +0.052 HD
ATOM    129  H   UNL     1     147.791 167.244 195.803  0.00  0.00    +0.052 HD
ATOM    130  H   UNL     1     146.938 165.784 195.254  0.00  0.00    +0.052 HD
ENDBRANCH 126 127
ENDBRANCH  82 126
ENDBRANCH  76  82
ENDBRANCH  25  76
BRANCH  31 131
ATOM    131  O   UNL     1     144.551 168.971 189.392  0.00  0.00    -0.379 OA
BRANCH 131 132
ATOM    132  C   UNL     1     143.583 168.917 190.436  0.00  0.00    +0.037 C 
ATOM    133  H   UNL     1     143.686 169.783 191.097  0.00  0.00    +0.052 HD
ATOM    134  H   UNL     1     142.586 168.931 189.986  0.00  0.00    +0.052 HD
ATOM    135  H   UNL     1     143.694 167.989 191.010  0.00  0.00    +0.052 HD
ENDBRANCH 131 132
ENDBRANCH  31 131
BRANCH  29 136
ATOM    136  O   UNL     1     144.604 172.543 189.600  0.00  0.00    -0.376 OA
BRANCH 136 137
ATOM    137  C   UNL     1     144.348 172.501 190.998  0.00  0.00    +0.037 C 
ATOM    138  H   UNL     1     143.292 172.278 191.188  0.00  0.00    +0.052 HD
ATOM    139  H   UNL     1     144.957 171.699 191.431  0.00  0.00    +0.052 HD
ATOM    140  H   UNL     1     144.631 173.445 191.470  0.00  0.00    +0.052 HD
ENDBRANCH 136 137
ENDBRANCH  29 136
BRANCH  16 141
ATOM    141  O   UNL     1     151.399 161.389 188.337  0.00  0.00    -0.379 OA
BRANCH 141 142
ATOM    142  C   UNL     1     151.774 160.023 188.450  0.00  0.00    +0.037 C 
ATOM    143  H   UNL     1     152.823 159.934 188.146  0.00  0.00    +0.052 HD
ATOM    144  H   UNL     1     151.169 159.383 187.800  0.00  0.00    +0.052 HD
ATOM    145  H   UNL     1     151.687 159.694 189.493  0.00  0.00    +0.052 HD
ENDBRANCH 141 142
ENDBRANCH  16 141
BRANCH   6 146
ATOM    146  O   UNL     1     149.008 166.803 185.476  0.00  0.00    -0.379 OA
BRANCH 146 147
ATOM    147  C   UNL     1     149.700 167.461 186.534  0.00  0.00    +0.037 C 
ATOM    148  H   UNL     1     150.754 167.169 186.531  0.00  0.00    +0.052 HD
ATOM    149  H   UNL     1     149.255 167.220 187.506  0.00  0.00    +0.052 HD
ATOM    150  H   UNL     1     149.632 168.542 186.377  0.00  0.00    +0.052 HD
ENDBRANCH 146 147
ENDBRANCH   6 146
BRANCH   4 151
ATOM    151  O   UNL     1     147.518 169.133 184.325  0.00  0.00    -0.376 OA
BRANCH 151 152
ATOM    152  C   UNL     1     147.183 170.500 184.541  0.00  0.00    +0.037 C 
ATOM    153  H   UNL     1     146.773 170.945 183.629  0.00  0.00    +0.052 HD
ATOM    154  H   UNL     1     146.418 170.541 185.315  0.00  0.00    +0.052 HD
ATOM    155  H   UNL     1     148.055 171.068 184.875  0.00  0.00    +0.052 HD
ENDBRANCH 151 152
ENDBRANCH   4 151
TORSDOF 33
ENDMDL
MODEL 9
REMARK VINA RESULT:      -5.0      2.384      7.941
REMARK  Name = Reidispongiolide A_conf3
REMARK  33 active torsions:
REMARK  status: ('A' for Active; 'I' for Inactive)
REMARK    1  A    between atoms: C_1  and  C_2
REMARK    2  A    between atoms: C_5  and  O_67
REMARK    3  A    between atoms: C_7  and  O_65
REMARK    4  A    between atoms: C_8  and  C_64
REMARK    5  A    between atoms: C_17  and  O_62
REMARK    6  A    between atoms: C_19  and  C_61
REMARK    7  A    between atoms: C_26  and  C_38
REMARK    8  A    between atoms: C_27  and  C_37
REMARK    9  A    between atoms: C_30  and  O_35
REMARK   10  A    between atoms: C_32  and  O_33
REMARK   11  A    between atoms: O_33  and  C_34
REMARK   12  A    between atoms: O_35  and  C_36
REMARK   13  A    between atoms: C_38  and  C_39
REMARK   14  A    between atoms: C_38  and  C_40
REMARK   15  A    between atoms: C_40  and  C_41
REMARK   16  A    between atoms: C_40  and  O_59
REMARK   17  A    between atoms: C_41  and  C_42
REMARK   18  A    between atoms: C_41  and  C_43
REMARK   19  A    between atoms: C_43  and  C_44
REMARK   20  A    between atoms: C_44  and  C_45
REMARK   21  A    between atoms: C_45  and  C_47
REMARK   22  A    between atoms: C_47  and  C_48
REMARK   23  A    between atoms: C_47  and  C_49
REMARK   24  A    between atoms: C_49  and  C_50
REMARK   25  A    between atoms: C_49  and  O_57
REMARK   26  A    between atoms: C_50  and  C_51
REMARK   27  A    between atoms: C_52  and  N_53
REMARK   28  A    between atoms: N_53  and  C_54
REMARK   29  A    between atoms: O_57  and  C_58
REMARK   30  A    between atoms: O_59  and  C_60
REMARK   31  A    between atoms: O_62  and  C_63
REMARK   32  A    between atoms: O_65  and  C_66
REMARK   33  A    between atoms: O_67  and  C_68
REMARK                            x       y       z     vdW  Elec       q    Type
REMARK                         _______ _______ _______ _____ _____    ______ ____
ROOT
ATOM      1  C   UNL     1     143.271 167.613 190.808  0.00  0.00    +0.001 C 
ATOM      2  C   UNL     1     144.512 167.375 191.661  0.00  0.00    -0.080 C 
ATOM      3  C   UNL     1     144.543 166.751 192.852  0.00  0.00    -0.059 C 
ATOM      4  C   UNL     1     145.690 166.519 193.803  0.00  0.00    +0.079 C 
ATOM      5  C   UNL     1     147.055 167.164 193.495  0.00  0.00    +0.004 C 
ATOM      6  C   UNL     1     147.885 166.536 192.352  0.00  0.00    +0.067 C 
ATOM      7  C   UNL     1     148.986 167.493 191.800  0.00  0.00    +0.020 C 
ATOM      8  C   UNL     1     150.009 167.974 192.881  0.00  0.00    +0.112 C 
ATOM      9  C   UNL     1     151.217 167.043 193.125  0.00  0.00    +0.006 C 
ATOM     10  C   UNL     1     152.392 167.341 192.232  0.00  0.00    -0.057 C 
ATOM     11  C   UNL     1     152.454 168.514 191.579  0.00  0.00    +0.022 C 
ATOM     12  C   UNL     1     151.449 169.578 191.744  0.00  0.00    +0.332 C 
ATOM     13  O   UNL     1     151.572 170.656 191.175  0.00  0.00    -0.246 OA
ATOM     14  O   UNL     1     150.442 169.333 192.613  0.00  0.00    -0.458 OA
ATOM     15  C   UNL     1     153.583 166.391 192.269  0.00  0.00    -0.004 C 
ATOM     16  C   UNL     1     154.187 165.762 190.978  0.00  0.00    +0.066 C 
ATOM     17  C   UNL     1     153.550 164.412 190.554  0.00  0.00    -0.005 C 
ATOM     18  C   UNL     1     152.416 164.403 189.544  0.00  0.00    -0.070 C 
ATOM     19  C   UNL     1     152.457 163.571 188.479  0.00  0.00    -0.062 C 
ATOM     20  C   UNL     1     151.425 163.445 187.471  0.00  0.00    -0.055 C 
ATOM     21  C   UNL     1     150.170 163.057 187.744  0.00  0.00    +0.023 C 
ATOM     22  C   UNL     1     149.151 163.117 186.685  0.00  0.00    +0.332 C 
ATOM     23  O   UNL     1     149.379 163.080 185.484  0.00  0.00    -0.246 OA
ATOM     24  O   UNL     1     147.949 163.309 187.275  0.00  0.00    -0.457 OA
ATOM     25  C   UNL     1     146.915 163.883 186.443  0.00  0.00    +0.114 C 
ATOM     26  C   UNL     1     145.573 163.099 186.597  0.00  0.00    +0.012 C 
ATOM     27  C   UNL     1     144.789 163.352 187.864  0.00  0.00    -0.079 C 
ATOM     28  C   UNL     1     143.539 163.859 187.865  0.00  0.00    -0.059 C 
ATOM     29  C   UNL     1     142.697 164.075 189.091  0.00  0.00    +0.079 C 
ATOM     30  C   UNL     1     143.222 165.121 190.095  0.00  0.00    +0.004 C 
ATOM     31  C   UNL     1     143.087 166.589 189.645  0.00  0.00    +0.067 C 
ATOM     32  H   UNL     1     143.427 168.603 190.350  0.00  0.00    +0.037 HD
ATOM     33  H   UNL     1     145.426 167.774 191.230  0.00  0.00    +0.057 HD
ATOM     34  H   UNL     1     143.612 166.342 193.239  0.00  0.00    +0.059 HD
ATOM     35  H   UNL     1     145.347 166.965 194.750  0.00  0.00    +0.064 HD
ATOM     36  H   UNL     1     147.646 167.094 194.414  0.00  0.00    +0.032 HD
ATOM     37  H   UNL     1     146.884 168.229 193.312  0.00  0.00    +0.032 HD
ATOM     38  H   UNL     1     147.216 166.275 191.524  0.00  0.00    +0.060 HD
ATOM     39  H   UNL     1     149.550 166.931 191.053  0.00  0.00    +0.036 HD
ATOM     40  H   UNL     1     149.486 168.052 193.839  0.00  0.00    +0.074 HD
ATOM     41  H   UNL     1     150.923 165.994 193.032  0.00  0.00    +0.035 HD
ATOM     42  H   UNL     1     151.558 167.185 194.159  0.00  0.00    +0.035 HD
ATOM     43  H   UNL     1     153.310 168.798 190.974  0.00  0.00    +0.069 HD
ATOM     44  H   UNL     1     153.389 165.589 192.998  0.00  0.00    +0.034 HD
ATOM     45  H   UNL     1     154.397 166.980 192.727  0.00  0.00    +0.034 HD
ATOM     46  H   UNL     1     155.220 165.520 191.270  0.00  0.00    +0.060 HD
ATOM     47  H   UNL     1     153.217 163.870 191.452  0.00  0.00    +0.034 HD
ATOM     48  H   UNL     1     154.368 163.804 190.145  0.00  0.00    +0.034 HD
ATOM     49  H   UNL     1     153.334 162.946 188.307  0.00  0.00    +0.062 HD
ATOM     50  H   UNL     1     151.719 163.700 186.453  0.00  0.00    +0.062 HD
ATOM     51  H   UNL     1     149.838 162.796 188.739  0.00  0.00    +0.069 HD
ATOM     52  H   UNL     1     147.182 163.732 185.390  0.00  0.00    +0.074 HD
ATOM     53  H   UNL     1     144.953 163.418 185.747  0.00  0.00    +0.038 HD
ATOM     54  H   UNL     1     145.265 163.081 188.807  0.00  0.00    +0.057 HD
ATOM     55  H   UNL     1     143.069 164.102 186.910  0.00  0.00    +0.059 HD
ATOM     56  H   UNL     1     142.622 163.112 189.617  0.00  0.00    +0.064 HD
ATOM     57  H   UNL     1     144.265 164.886 190.338  0.00  0.00    +0.032 HD
ATOM     58  H   UNL     1     142.631 164.991 191.011  0.00  0.00    +0.032 HD
ATOM     59  H   UNL     1     142.082 166.744 189.229  0.00  0.00    +0.060 HD
ENDROOT
BRANCH   1  60
ATOM     60  C   UNL     1     141.977 167.737 191.627  0.00  0.00    -0.057 C 
ATOM     61  H   UNL     1     141.529 166.750 191.787  0.00  0.00    +0.024 HD
ATOM     62  H   UNL     1     141.237 168.349 191.101  0.00  0.00    +0.024 HD
ATOM     63  H   UNL     1     142.145 168.183 192.610  0.00  0.00    +0.024 HD
ENDBRANCH   1  60
BRANCH  26  64
ATOM     64  C   UNL     1     145.815 161.591 186.445  0.00  0.00    -0.056 C 
ATOM     65  H   UNL     1     146.608 161.387 185.714  0.00  0.00    +0.024 HD
ATOM     66  H   UNL     1     144.909 161.079 186.111  0.00  0.00    +0.024 HD
ATOM     67  H   UNL     1     146.104 161.149 187.402  0.00  0.00    +0.024 HD
ENDBRANCH  26  64
BRANCH  18  68
ATOM     68  C   UNL     1     151.282 165.340 189.830  0.00  0.00    -0.043 C 
ATOM     69  H   UNL     1     150.391 165.042 189.275  0.00  0.00    +0.027 HD
ATOM     70  H   UNL     1     150.981 165.374 190.879  0.00  0.00    +0.027 HD
ATOM     71  H   UNL     1     151.583 166.348 189.543  0.00  0.00    +0.027 HD
ENDBRANCH  18  68
BRANCH   7  72
ATOM     72  C   UNL     1     148.330 168.650 191.035  0.00  0.00    -0.057 C 
ATOM     73  H   UNL     1     147.409 168.967 191.528  0.00  0.00    +0.023 HD
ATOM     74  H   UNL     1     148.989 169.519 190.954  0.00  0.00    +0.023 HD
ATOM     75  H   UNL     1     148.052 168.338 190.025  0.00  0.00    +0.023 HD
ENDBRANCH   7  72
BRANCH  25  76
ATOM     76  C   UNL     1     146.832 165.425 186.719  0.00  0.00    +0.020 C 
ATOM     77  H   UNL     1     145.859 165.759 186.340  0.00  0.00    +0.036 HD
BRANCH  76  78
ATOM     78  C   UNL     1     146.868 165.729 188.221  0.00  0.00    -0.057 C 
ATOM     79  H   UNL     1     145.911 166.098 188.599  0.00  0.00    +0.023 HD
ATOM     80  H   UNL     1     147.157 164.841 188.786  0.00  0.00    +0.023 HD
ATOM     81  H   UNL     1     147.613 166.486 188.469  0.00  0.00    +0.023 HD
ENDBRANCH  76  78
BRANCH  76  82
ATOM     82  C   UNL     1     147.926 166.177 185.879  0.00  0.00    +0.067 C 
ATOM     83  H   UNL     1     148.758 165.486 185.700  0.00  0.00    +0.060 HD
BRANCH  82  84
ATOM     84  C   UNL     1     148.607 167.459 186.446  0.00  0.00    -0.017 C 
ATOM     85  H   UNL     1     148.289 167.569 187.489  0.00  0.00    +0.032 HD
BRANCH  84  86
ATOM     86  C   UNL     1     150.130 167.236 186.505  0.00  0.00    -0.060 C 
ATOM     87  H   UNL     1     150.604 167.611 185.593  0.00  0.00    +0.023 HD
ATOM     88  H   UNL     1     150.372 166.169 186.581  0.00  0.00    +0.023 HD
ATOM     89  H   UNL     1     150.588 167.747 187.362  0.00  0.00    +0.023 HD
ENDBRANCH  84  86
BRANCH  84  90
ATOM     90  C   UNL     1     148.332 168.816 185.755  0.00  0.00    -0.041 C 
ATOM     91  H   UNL     1     148.606 168.721 184.695  0.00  0.00    +0.027 HD
ATOM     92  H   UNL     1     149.028 169.567 186.138  0.00  0.00    +0.027 HD
BRANCH  90  93
ATOM     93  C   UNL     1     146.914 169.374 185.845  0.00  0.00    +0.007 C 
ATOM     94  H   UNL     1     146.172 168.663 185.473  0.00  0.00    +0.034 HD
ATOM     95  H   UNL     1     146.826 170.289 185.246  0.00  0.00    +0.034 HD
BRANCH  93  96
ATOM     96  C   UNL     1     146.534 169.745 187.275  0.00  0.00    +0.139 C 
ATOM     97  O   UNL     1     147.207 169.312 188.216  0.00  0.00    -0.297 OA
BRANCH  96  98
ATOM     98  C   UNL     1     145.298 170.626 187.497  0.00  0.00    +0.041 C 
ATOM     99  H   UNL     1     144.517 170.186 186.874  0.00  0.00    +0.040 HD
BRANCH  98 100
ATOM    100  C   UNL     1     145.508 172.054 186.987  0.00  0.00    -0.053 C 
ATOM    101  H   UNL     1     145.156 172.183 185.959  0.00  0.00    +0.024 HD
ATOM    102  H   UNL     1     144.953 172.767 187.606  0.00  0.00    +0.024 HD
ATOM    103  H   UNL     1     146.566 172.340 187.039  0.00  0.00    +0.024 HD
ENDBRANCH  98 100
BRANCH  98 104
ATOM    104  C   UNL     1     144.789 170.567 188.958  0.00  0.00    +0.071 C 
ATOM    105  H   UNL     1     145.202 169.691 189.474  0.00  0.00    +0.061 HD
BRANCH 104 106
ATOM    106  C   UNL     1     145.076 171.814 189.831  0.00  0.00    -0.006 C 
ATOM    107  H   UNL     1     144.701 172.713 189.326  0.00  0.00    +0.033 HD
ATOM    108  H   UNL     1     144.464 171.736 190.739  0.00  0.00    +0.033 HD
BRANCH 106 109
ATOM    109  C   UNL     1     146.508 171.984 190.265  0.00  0.00    -0.067 C 
ATOM    110  C   UNL     1     146.853 172.460 191.469  0.00  0.00    -0.005 C 
ATOM    111  H   UNL     1     147.246 171.676 189.528  0.00  0.00    +0.059 HD
ATOM    112  H   UNL     1     146.065 172.706 192.179  0.00  0.00    +0.078 HD
BRANCH 110 113
ATOM    113  N   UNL     1     148.135 172.687 191.942  0.00  0.00    -0.284 N 
ATOM    114  C   UNL     1     148.603 172.328 193.205  0.00  0.00    +0.206 C 
ATOM    115  O   UNL     1     149.737 172.528 193.631  0.00  0.00    -0.279 OA
ATOM    116  H   UNL     1     147.861 171.817 193.830  0.00  0.00    +0.126 HD
BRANCH 113 117
ATOM    117  C   UNL     1     149.084 173.316 191.027  0.00  0.00    +0.007 C 
ATOM    118  H   UNL     1     148.969 174.404 191.108  0.00  0.00    +0.043 HD
ATOM    119  H   UNL     1     148.914 173.022 189.988  0.00  0.00    +0.043 HD
ATOM    120  H   UNL     1     150.105 173.033 191.307  0.00  0.00    +0.043 HD
ENDBRANCH 113 117
ENDBRANCH 110 113
ENDBRANCH 106 109
ENDBRANCH 104 106
BRANCH 104 121
ATOM    121  O   UNL     1     143.348 170.448 188.937  0.00  0.00    -0.379 OA
BRANCH 121 122
ATOM    122  C   UNL     1     142.700 171.239 189.931  0.00  0.00    +0.037 C 
ATOM    123  H   UNL     1     143.207 172.208 189.986  0.00  0.00    +0.052 HD
ATOM    124  H   UNL     1     141.654 171.410 189.672  0.00  0.00    +0.052 HD
ATOM    125  H   UNL     1     142.767 170.753 190.909  0.00  0.00    +0.052 HD
ENDBRANCH 121 122
ENDBRANCH 104 121
ENDBRANCH  98 104
ENDBRANCH  96  98
ENDBRANCH  93  96
ENDBRANCH  90  93
ENDBRANCH  84  90
ENDBRANCH  82  84
BRANCH  82 126
ATOM    126  O   UNL     1     147.360 166.498 184.592  0.00  0.00    -0.379 OA
BRANCH 126 127
ATOM    127  C   UNL     1     147.991 165.816 183.511  0.00  0.00    +0.037 C 
ATOM    128  H   UNL     1     147.515 166.084 182.563  0.00  0.00    +0.052 HD
ATOM    129  H   UNL     1     149.061 166.047 183.479  0.00  0.00    +0.052 HD
ATOM    130  H   UNL     1     147.871 164.738 183.666  0.00  0.00    +0.052 HD
ENDBRANCH 126 127
ENDBRANCH  82 126
ENDBRANCH  76  82
ENDBRANCH  25  76
BRANCH  31 131
ATOM    131  O   UNL     1     144.072 166.862 188.632  0.00  0.00    -0.379 OA
BRANCH 131 132
ATOM    132  C   UNL     1     143.485 167.364 187.434  0.00  0.00    +0.037 C 
ATOM    133  H   UNL     1     142.436 167.626 187.604  0.00  0.00    +0.052 HD
ATOM    134  H   UNL     1     144.030 168.262 187.131  0.00  0.00    +0.052 HD
ATOM    135  H   UNL     1     143.563 166.620 186.632  0.00  0.00    +0.052 HD
ENDBRANCH 131 132
ENDBRANCH  31 131
BRANCH  29 136
ATOM    136  O   UNL     1     141.395 164.486 188.638  0.00  0.00    -0.376 OA
BRANCH 136 137
ATOM    137  C   UNL     1     140.804 163.566 187.731  0.00  0.00    +0.037 C 
ATOM    138  H   UNL     1     141.375 163.528 186.796  0.00  0.00    +0.052 HD
ATOM    139  H   UNL     1     140.824 162.573 188.192  0.00  0.00    +0.052 HD
ATOM    140  H   UNL     1     139.764 163.836 187.532  0.00  0.00    +0.052 HD
ENDBRANCH 136 137
ENDBRANCH  29 136
BRANCH  16 141
ATOM    141  O   UNL     1     154.260 166.730 189.927  0.00  0.00    -0.379 OA
BRANCH 141 142
ATOM    142  C   UNL     1     155.264 166.456 188.961  0.00  0.00    +0.037 C 
ATOM    143  H   UNL     1     155.162 167.185 188.150  0.00  0.00    +0.052 HD
ATOM    144  H   UNL     1     155.156 165.451 188.539  0.00  0.00    +0.052 HD
ATOM    145  H   UNL     1     156.259 166.573 189.408  0.00  0.00    +0.052 HD
ENDBRANCH 141 142
ENDBRANCH  16 141
BRANCH   6 146
ATOM    146  O   UNL     1     148.531 165.354 192.843  0.00  0.00    -0.379 OA
BRANCH 146 147
ATOM    147  C   UNL     1     148.870 165.451 194.224  0.00  0.00    +0.037 C 
ATOM    148  H   UNL     1     149.788 166.034 194.344  0.00  0.00    +0.052 HD
ATOM    149  H   UNL     1     149.004 164.458 194.669  0.00  0.00    +0.052 HD
ATOM    150  H   UNL     1     148.056 165.962 194.748  0.00  0.00    +0.052 HD
ENDBRANCH 146 147
ENDBRANCH   6 146
BRANCH   4 151
ATOM    151  O   UNL     1     145.768 165.100 193.973  0.00  0.00    -0.376 OA
BRANCH 151 152
ATOM    152  C   UNL     1     145.707 164.691 195.335  0.00  0.00    +0.037 C 
ATOM    153  H   UNL     1     145.351 165.510 195.968  0.00  0.00    +0.052 HD
ATOM    154  H   UNL     1     144.995 163.869 195.408  0.00  0.00    +0.052 HD
ATOM    155  H   UNL     1     146.683 164.345 195.684  0.00  0.00    +0.052 HD
ENDBRANCH 151 152
ENDBRANCH   4 151
TORSDOF 33
ENDMDL
MODEL 10
REMARK VINA RESULT:      -5.0      2.967      7.785
REMARK  Name = Reidispongiolide A_conf3
REMARK  33 active torsions:
REMARK  status: ('A' for Active; 'I' for Inactive)
REMARK    1  A    between atoms: C_1  and  C_2
REMARK    2  A    between atoms: C_5  and  O_67
REMARK    3  A    between atoms: C_7  and  O_65
REMARK    4  A    between atoms: C_8  and  C_64
REMARK    5  A    between atoms: C_17  and  O_62
REMARK    6  A    between atoms: C_19  and  C_61
REMARK    7  A    between atoms: C_26  and  C_38
REMARK    8  A    between atoms: C_27  and  C_37
REMARK    9  A    between atoms: C_30  and  O_35
REMARK   10  A    between atoms: C_32  and  O_33
REMARK   11  A    between atoms: O_33  and  C_34
REMARK   12  A    between atoms: O_35  and  C_36
REMARK   13  A    between atoms: C_38  and  C_39
REMARK   14  A    between atoms: C_38  and  C_40
REMARK   15  A    between atoms: C_40  and  C_41
REMARK   16  A    between atoms: C_40  and  O_59
REMARK   17  A    between atoms: C_41  and  C_42
REMARK   18  A    between atoms: C_41  and  C_43
REMARK   19  A    between atoms: C_43  and  C_44
REMARK   20  A    between atoms: C_44  and  C_45
REMARK   21  A    between atoms: C_45  and  C_47
REMARK   22  A    between atoms: C_47  and  C_48
REMARK   23  A    between atoms: C_47  and  C_49
REMARK   24  A    between atoms: C_49  and  C_50
REMARK   25  A    between atoms: C_49  and  O_57
REMARK   26  A    between atoms: C_50  and  C_51
REMARK   27  A    between atoms: C_52  and  N_53
REMARK   28  A    between atoms: N_53  and  C_54
REMARK   29  A    between atoms: O_57  and  C_58
REMARK   30  A    between atoms: O_59  and  C_60
REMARK   31  A    between atoms: O_62  and  C_63
REMARK   32  A    between atoms: O_65  and  C_66
REMARK   33  A    between atoms: O_67  and  C_68
REMARK                            x       y       z     vdW  Elec       q    Type
REMARK                         _______ _______ _______ _____ _____    ______ ____
ROOT
ATOM      1  C   UNL     1     153.221 166.941 188.490  0.00  0.00    +0.001 C 
ATOM      2  C   UNL     1     152.263 166.192 187.570  0.00  0.00    -0.080 C 
ATOM      3  C   UNL     1     152.408 164.924 187.144  0.00  0.00    -0.059 C 
ATOM      4  C   UNL     1     151.567 164.112 186.192  0.00  0.00    +0.079 C 
ATOM      5  C   UNL     1     150.402 164.802 185.455  0.00  0.00    +0.004 C 
ATOM      6  C   UNL     1     149.139 165.122 186.286  0.00  0.00    +0.067 C 
ATOM      7  C   UNL     1     148.232 166.204 185.624  0.00  0.00    +0.020 C 
ATOM      8  C   UNL     1     147.736 165.827 184.189  0.00  0.00    +0.112 C 
ATOM      9  C   UNL     1     146.444 164.985 184.124  0.00  0.00    +0.006 C 
ATOM     10  C   UNL     1     145.189 165.815 184.073  0.00  0.00    -0.057 C 
ATOM     11  C   UNL     1     145.265 167.120 183.758  0.00  0.00    +0.022 C 
ATOM     12  C   UNL     1     146.526 167.783 183.383  0.00  0.00    +0.332 C 
ATOM     13  O   UNL     1     146.545 168.960 183.047  0.00  0.00    -0.246 OA
ATOM     14  O   UNL     1     147.634 167.007 183.351  0.00  0.00    -0.458 OA
ATOM     15  C   UNL     1     143.848 165.100 184.165  0.00  0.00    -0.004 C 
ATOM     16  C   UNL     1     142.748 165.520 185.187  0.00  0.00    +0.066 C 
ATOM     17  C   UNL     1     142.841 164.815 186.567  0.00  0.00    -0.005 C 
ATOM     18  C   UNL     1     143.587 165.490 187.704  0.00  0.00    -0.070 C 
ATOM     19  C   UNL     1     143.015 165.605 188.923  0.00  0.00    -0.062 C 
ATOM     20  C   UNL     1     143.636 166.194 190.091  0.00  0.00    -0.055 C 
ATOM     21  C   UNL     1     144.761 165.718 190.648  0.00  0.00    +0.023 C 
ATOM     22  C   UNL     1     145.406 166.477 191.730  0.00  0.00    +0.332 C 
ATOM     23  O   UNL     1     144.840 167.268 192.471  0.00  0.00    -0.246 OA
ATOM     24  O   UNL     1     146.732 166.211 191.691  0.00  0.00    -0.457 OA
ATOM     25  C   UNL     1     147.597 167.193 192.305  0.00  0.00    +0.114 C 
ATOM     26  C   UNL     1     148.659 166.508 193.223  0.00  0.00    +0.012 C 
ATOM     27  C   UNL     1     149.813 165.828 192.524  0.00  0.00    -0.079 C 
ATOM     28  C   UNL     1     151.099 166.192 192.704  0.00  0.00    -0.059 C 
ATOM     29  C   UNL     1     152.284 165.512 192.078  0.00  0.00    +0.079 C 
ATOM     30  C   UNL     1     152.378 165.599 190.542  0.00  0.00    +0.004 C 
ATOM     31  C   UNL     1     152.774 166.980 189.985  0.00  0.00    +0.067 C 
ATOM     32  H   UNL     1     153.217 167.978 188.120  0.00  0.00    +0.037 HD
ATOM     33  H   UNL     1     151.411 166.782 187.249  0.00  0.00    +0.057 HD
ATOM     34  H   UNL     1     153.262 164.357 187.508  0.00  0.00    +0.059 HD
ATOM     35  H   UNL     1     152.277 163.794 185.412  0.00  0.00    +0.064 HD
ATOM     36  H   UNL     1     150.106 164.128 184.644  0.00  0.00    +0.032 HD
ATOM     37  H   UNL     1     150.797 165.706 184.983  0.00  0.00    +0.032 HD
ATOM     38  H   UNL     1     149.442 165.491 187.272  0.00  0.00    +0.060 HD
ATOM     39  H   UNL     1     147.344 166.304 186.253  0.00  0.00    +0.036 HD
ATOM     40  H   UNL     1     148.514 165.230 183.702  0.00  0.00    +0.074 HD
ATOM     41  H   UNL     1     146.399 164.277 184.957  0.00  0.00    +0.035 HD
ATOM     42  H   UNL     1     146.468 164.386 183.203  0.00  0.00    +0.035 HD
ATOM     43  H   UNL     1     144.383 167.743 183.648  0.00  0.00    +0.069 HD
ATOM     44  H   UNL     1     144.016 164.015 184.251  0.00  0.00    +0.034 HD
ATOM     45  H   UNL     1     143.394 165.223 183.167  0.00  0.00    +0.034 HD
ATOM     46  H   UNL     1     141.818 165.148 184.730  0.00  0.00    +0.060 HD
ATOM     47  H   UNL     1     143.258 163.806 186.432  0.00  0.00    +0.034 HD
ATOM     48  H   UNL     1     141.806 164.652 186.895  0.00  0.00    +0.034 HD
ATOM     49  H   UNL     1     141.989 165.268 189.080  0.00  0.00    +0.062 HD
ATOM     50  H   UNL     1     143.143 167.075 190.501  0.00  0.00    +0.062 HD
ATOM     51  H   UNL     1     145.280 164.848 190.272  0.00  0.00    +0.069 HD
ATOM     52  H   UNL     1     147.008 167.800 193.002  0.00  0.00    +0.074 HD
ATOM     53  H   UNL     1     149.069 167.317 193.844  0.00  0.00    +0.038 HD
ATOM     54  H   UNL     1     149.574 164.990 191.868  0.00  0.00    +0.057 HD
ATOM     55  H   UNL     1     151.321 167.017 193.384  0.00  0.00    +0.059 HD
ATOM     56  H   UNL     1     152.241 164.448 192.354  0.00  0.00    +0.064 HD
ATOM     57  H   UNL     1     151.427 165.266 190.109  0.00  0.00    +0.032 HD
ATOM     58  H   UNL     1     153.149 164.877 190.241  0.00  0.00    +0.032 HD
ATOM     59  H   UNL     1     153.619 167.372 190.568  0.00  0.00    +0.060 HD
ENDROOT
BRANCH   1  60
ATOM     60  C   UNL     1     154.679 166.468 188.376  0.00  0.00    -0.057 C 
ATOM     61  H   UNL     1     155.180 166.970 187.542  0.00  0.00    +0.024 HD
ATOM     62  H   UNL     1     154.728 165.391 188.186  0.00  0.00    +0.024 HD
ATOM     63  H   UNL     1     155.259 166.677 189.279  0.00  0.00    +0.024 HD
ENDBRANCH   1  60
BRANCH  26  64
ATOM     64  C   UNL     1     147.980 165.507 194.169  0.00  0.00    -0.056 C 
ATOM     65  H   UNL     1     148.230 164.472 193.899  0.00  0.00    +0.024 HD
ATOM     66  H   UNL     1     146.893 165.611 194.138  0.00  0.00    +0.024 HD
ATOM     67  H   UNL     1     148.294 165.679 195.202  0.00  0.00    +0.024 HD
ENDBRANCH  26  64
BRANCH  18  68
ATOM     68  C   UNL     1     144.967 165.977 187.379  0.00  0.00    -0.043 C 
ATOM     69  H   UNL     1     145.549 165.185 186.903  0.00  0.00    +0.027 HD
ATOM     70  H   UNL     1     144.994 166.822 186.689  0.00  0.00    +0.027 HD
ATOM     71  H   UNL     1     145.451 166.294 188.303  0.00  0.00    +0.027 HD
ENDBRANCH  18  68
BRANCH   7  72
ATOM     72  C   UNL     1     148.930 167.570 185.679  0.00  0.00    -0.057 C 
ATOM     73  H   UNL     1     149.319 167.766 186.680  0.00  0.00    +0.023 HD
ATOM     74  H   UNL     1     149.761 167.640 184.971  0.00  0.00    +0.023 HD
ATOM     75  H   UNL     1     148.223 168.374 185.456  0.00  0.00    +0.023 HD
ENDBRANCH   7  72
BRANCH  25  76
ATOM     76  C   UNL     1     148.176 168.135 191.192  0.00  0.00    +0.020 C 
ATOM     77  H   UNL     1     149.120 168.536 191.580  0.00  0.00    +0.036 HD
BRANCH  76  78
ATOM     78  C   UNL     1     148.499 167.358 189.911  0.00  0.00    -0.057 C 
ATOM     79  H   UNL     1     147.606 167.098 189.339  0.00  0.00    +0.023 HD
ATOM     80  H   UNL     1     149.177 167.929 189.275  0.00  0.00    +0.023 HD
ATOM     81  H   UNL     1     149.019 166.421 190.119  0.00  0.00    +0.023 HD
ENDBRANCH  76  78
BRANCH  76  82
ATOM     82  C   UNL     1     147.217 169.362 190.981  0.00  0.00    +0.067 C 
ATOM     83  H   UNL     1     146.196 169.047 191.223  0.00  0.00    +0.060 HD
BRANCH  82  84
ATOM     84  C   UNL     1     147.091 170.027 189.577  0.00  0.00    -0.017 C 
ATOM     85  H   UNL     1     148.075 169.976 189.097  0.00  0.00    +0.032 HD
BRANCH  84  86
ATOM     86  C   UNL     1     146.163 169.170 188.696  0.00  0.00    -0.060 C 
ATOM     87  H   UNL     1     145.131 169.527 188.773  0.00  0.00    +0.023 HD
ATOM     88  H   UNL     1     146.167 168.121 189.017  0.00  0.00    +0.023 HD
ATOM     89  H   UNL     1     146.456 169.199 187.638  0.00  0.00    +0.023 HD
ENDBRANCH  84  86
BRANCH  84  90
ATOM     90  C   UNL     1     146.633 171.502 189.489  0.00  0.00    -0.041 C 
ATOM     91  H   UNL     1     147.121 171.959 188.617  0.00  0.00    +0.027 HD
ATOM     92  H   UNL     1     147.038 172.060 190.337  0.00  0.00    +0.027 HD
BRANCH  90  93
ATOM     93  C   UNL     1     145.131 171.766 189.404  0.00  0.00    +0.007 C 
ATOM     94  H   UNL     1     144.605 170.960 188.887  0.00  0.00    +0.034 HD
ATOM     95  H   UNL     1     144.939 172.694 188.851  0.00  0.00    +0.034 HD
BRANCH  93  96
ATOM     96  C   UNL     1     144.501 171.935 190.781  0.00  0.00    +0.139 C 
ATOM     97  O   UNL     1     145.094 172.584 191.649  0.00  0.00    -0.297 OA
BRANCH  96  98
ATOM     98  C   UNL     1     143.152 171.257 191.054  0.00  0.00    +0.041 C 
ATOM     99  H   UNL     1     143.047 171.255 192.141  0.00  0.00    +0.040 HD
BRANCH  98 100
ATOM    100  C   UNL     1     143.143 169.791 190.614  0.00  0.00    -0.053 C 
ATOM    101  H   UNL     1     143.478 169.667 189.579  0.00  0.00    +0.024 HD
ATOM    102  H   UNL     1     143.819 169.199 191.241  0.00  0.00    +0.024 HD
ATOM    103  H   UNL     1     142.143 169.353 190.719  0.00  0.00    +0.024 HD
ENDBRANCH  98 100
BRANCH  98 104
ATOM    104  C   UNL     1     141.960 172.071 190.493  0.00  0.00    +0.071 C 
ATOM    105  H   UNL     1     141.053 171.881 191.082  0.00  0.00    +0.061 HD
BRANCH 104 106
ATOM    106  C   UNL     1     142.161 173.604 190.409  0.00  0.00    -0.006 C 
ATOM    107  H   UNL     1     143.214 173.827 190.196  0.00  0.00    +0.033 HD
ATOM    108  H   UNL     1     141.621 173.966 189.525  0.00  0.00    +0.033 HD
BRANCH 106 109
ATOM    109  C   UNL     1     141.662 174.388 191.595  0.00  0.00    -0.067 C 
ATOM    110  C   UNL     1     142.302 174.414 192.772  0.00  0.00    -0.005 C 
ATOM    111  H   UNL     1     140.745 174.945 191.419  0.00  0.00    +0.059 HD
ATOM    112  H   UNL     1     143.241 173.872 192.868  0.00  0.00    +0.078 HD
BRANCH 110 113
ATOM    113  N   UNL     1     141.904 175.071 193.924  0.00  0.00    -0.284 N 
ATOM    114  C   UNL     1     140.691 174.877 194.583  0.00  0.00    +0.206 C 
ATOM    115  O   UNL     1     140.331 175.458 195.604  0.00  0.00    -0.279 OA
ATOM    116  H   UNL     1     140.042 174.125 194.119  0.00  0.00    +0.126 HD
BRANCH 113 117
ATOM    117  C   UNL     1     142.849 176.012 194.518  0.00  0.00    +0.007 C 
ATOM    118  H   UNL     1     143.751 176.033 193.893  0.00  0.00    +0.043 HD
ATOM    119  H   UNL     1     143.134 175.728 195.534  0.00  0.00    +0.043 HD
ATOM    120  H   UNL     1     142.400 177.012 194.548  0.00  0.00    +0.043 HD
ENDBRANCH 113 117
ENDBRANCH 110 113
ENDBRANCH 106 109
ENDBRANCH 104 106
BRANCH 104 121
ATOM    121  O   UNL     1     141.717 171.649 189.131  0.00  0.00    -0.379 OA
BRANCH 121 122
ATOM    122  C   UNL     1     141.693 172.730 188.200  0.00  0.00    +0.037 C 
ATOM    123  H   UNL     1     142.107 173.617 188.689  0.00  0.00    +0.052 HD
ATOM    124  H   UNL     1     142.300 172.502 187.323  0.00  0.00    +0.052 HD
ATOM    125  H   UNL     1     140.664 172.946 187.895  0.00  0.00    +0.052 HD
ENDBRANCH 121 122
ENDBRANCH 104 121
ENDBRANCH  98 104
ENDBRANCH  96  98
ENDBRANCH  93  96
ENDBRANCH  90  93
ENDBRANCH  84  90
ENDBRANCH  82  84
BRANCH  82 126
ATOM    126  O   UNL     1     147.580 170.383 191.932  0.00  0.00    -0.379 OA
BRANCH 126 127
ATOM    127  C   UNL     1     148.987 170.587 192.032  0.00  0.00    +0.037 C 
ATOM    128  H   UNL     1     149.362 171.094 191.137  0.00  0.00    +0.052 HD
ATOM    129  H   UNL     1     149.233 171.165 192.928  0.00  0.00    +0.052 HD
ATOM    130  H   UNL     1     149.474 169.608 192.104  0.00  0.00    +0.052 HD
ENDBRANCH 126 127
ENDBRANCH  82 126
ENDBRANCH  76  82
ENDBRANCH  25  76
BRANCH  31 131
ATOM    131  O   UNL     1     151.653 167.874 190.105  0.00  0.00    -0.379 OA
BRANCH 131 132
ATOM    132  C   UNL     1     151.927 168.962 190.985  0.00  0.00    +0.037 C 
ATOM    133  H   UNL     1     153.005 169.067 191.139  0.00  0.00    +0.052 HD
ATOM    134  H   UNL     1     151.542 169.880 190.531  0.00  0.00    +0.052 HD
ATOM    135  H   UNL     1     151.421 168.809 191.946  0.00  0.00    +0.052 HD
ENDBRANCH 131 132
ENDBRANCH  31 131
BRANCH  29 136
ATOM    136  O   UNL     1     153.461 166.116 192.645  0.00  0.00    -0.376 OA
BRANCH 136 137
ATOM    137  C   UNL     1     153.174 166.976 193.740  0.00  0.00    +0.037 C 
ATOM    138  H   UNL     1     153.098 166.401 194.670  0.00  0.00    +0.052 HD
ATOM    139  H   UNL     1     154.000 167.689 193.838  0.00  0.00    +0.052 HD
ATOM    140  H   UNL     1     152.252 167.535 193.560  0.00  0.00    +0.052 HD
ENDBRANCH 136 137
ENDBRANCH  29 136
BRANCH  16 141
ATOM    141  O   UNL     1     142.643 166.944 185.264  0.00  0.00    -0.379 OA
BRANCH 141 142
ATOM    142  C   UNL     1     141.328 167.437 185.049  0.00  0.00    +0.037 C 
ATOM    143  H   UNL     1     141.083 168.116 185.873  0.00  0.00    +0.052 HD
ATOM    144  H   UNL     1     140.591 166.627 185.036  0.00  0.00    +0.052 HD
ATOM    145  H   UNL     1     141.287 168.002 184.110  0.00  0.00    +0.052 HD
ENDBRANCH 141 142
ENDBRANCH  16 141
BRANCH   6 146
ATOM    146  O   UNL     1     148.365 163.925 186.434  0.00  0.00    -0.379 OA
BRANCH 146 147
ATOM    147  C   UNL     1     147.827 163.783 187.746  0.00  0.00    +0.037 C 
ATOM    148  H   UNL     1     147.047 164.532 187.915  0.00  0.00    +0.052 HD
ATOM    149  H   UNL     1     148.608 163.889 188.507  0.00  0.00    +0.052 HD
ATOM    150  H   UNL     1     147.385 162.786 187.836  0.00  0.00    +0.052 HD
ENDBRANCH 146 147
ENDBRANCH   6 146
BRANCH   4 151
ATOM    151  O   UNL     1     151.156 162.958 186.930  0.00  0.00    -0.376 OA
BRANCH 151 152
ATOM    152  C   UNL     1     152.014 162.655 188.026  0.00  0.00    +0.037 C 
ATOM    153  H   UNL     1     152.993 162.321 187.668  0.00  0.00    +0.052 HD
ATOM    154  H   UNL     1     152.155 163.567 188.605  0.00  0.00    +0.052 HD
ATOM    155  H   UNL     1     151.571 161.891 188.670  0.00  0.00    +0.052 HD
ENDBRANCH 151 152
ENDBRANCH   4 151
TORSDOF 33
ENDMDL
