MODEL 1
REMARK VINA RESULT:      -5.7      0.000      0.000
REMARK  Name = Sphinxolide B_conf2
REMARK  33 active torsions:
REMARK  status: ('A' for Active; 'I' for Inactive)
REMARK    1  A    between atoms: C_1  and  C_2
REMARK    2  A    between atoms: C_5  and  O_67
REMARK    3  A    between atoms: C_7  and  O_65
REMARK    4  A    between atoms: C_8  and  C_64
REMARK    5  A    between atoms: C_10  and  O_63
REMARK    6  A    between atoms: C_17  and  O_61
REMARK    7  A    between atoms: C_19  and  C_60
REMARK    8  A    between atoms: C_26  and  C_37
REMARK    9  A    between atoms: C_27  and  C_36
REMARK   10  A    between atoms: C_30  and  O_34
REMARK   11  A    between atoms: C_32  and  O_33
REMARK   12  A    between atoms: O_34  and  C_35
REMARK   13  A    between atoms: C_37  and  C_38
REMARK   14  A    between atoms: C_37  and  C_39
REMARK   15  A    between atoms: C_39  and  C_40
REMARK   16  A    between atoms: C_39  and  O_58
REMARK   17  A    between atoms: C_40  and  C_41
REMARK   18  A    between atoms: C_40  and  C_42
REMARK   19  A    between atoms: C_42  and  C_43
REMARK   20  A    between atoms: C_43  and  C_44
REMARK   21  A    between atoms: C_44  and  C_46
REMARK   22  A    between atoms: C_46  and  C_47
REMARK   23  A    between atoms: C_46  and  C_48
REMARK   24  A    between atoms: C_48  and  C_49
REMARK   25  A    between atoms: C_48  and  O_56
REMARK   26  A    between atoms: C_49  and  C_50
REMARK   27  A    between atoms: C_51  and  N_52
REMARK   28  A    between atoms: N_52  and  C_53
REMARK   29  A    between atoms: O_56  and  C_57
REMARK   30  A    between atoms: O_58  and  C_59
REMARK   31  A    between atoms: O_61  and  C_62
REMARK   32  A    between atoms: O_65  and  C_66
REMARK   33  A    between atoms: O_67  and  C_68
REMARK                            x       y       z     vdW  Elec       q    Type
REMARK                         _______ _______ _______ _____ _____    ______ ____
ROOT
ATOM      1  C   UNL     1     140.753 174.229 190.428  0.00  0.00    +0.000 C 
ATOM      2  C   UNL     1     140.698 175.546 189.663  0.00  0.00    -0.080 C 
ATOM      3  C   UNL     1     141.360 176.666 190.004  0.00  0.00    -0.059 C 
ATOM      4  C   UNL     1     141.200 177.993 189.315  0.00  0.00    +0.079 C 
ATOM      5  C   UNL     1     142.551 178.569 188.867  0.00  0.00    +0.004 C 
ATOM      6  C   UNL     1     143.289 177.795 187.754  0.00  0.00    +0.067 C 
ATOM      7  C   UNL     1     142.473 177.597 186.444  0.00  0.00    +0.022 C 
ATOM      8  C   UNL     1     143.313 177.085 185.224  0.00  0.00    +0.138 C 
ATOM      9  C   UNL     1     144.204 175.825 185.370  0.00  0.00    +0.114 C 
ATOM     10  C   UNL     1     143.379 174.571 185.317  0.00  0.00    -0.029 C 
ATOM     11  C   UNL     1     142.179 174.597 184.713  0.00  0.00    +0.024 C 
ATOM     12  C   UNL     1     141.658 175.791 184.022  0.00  0.00    +0.332 C 
ATOM     13  O   UNL     1     140.609 175.741 183.393  0.00  0.00    -0.246 OA
ATOM     14  O   UNL     1     142.419 176.908 184.091  0.00  0.00    -0.455 OA
ATOM     15  C   UNL     1     143.974 173.264 185.807  0.00  0.00    -0.002 C 
ATOM     16  C   UNL     1     145.344 172.905 185.179  0.00  0.00    +0.066 C 
ATOM     17  C   UNL     1     145.764 171.435 185.475  0.00  0.00    -0.005 C 
ATOM     18  C   UNL     1     144.773 170.349 185.071  0.00  0.00    -0.070 C 
ATOM     19  C   UNL     1     144.295 169.366 185.858  0.00  0.00    -0.062 C 
ATOM     20  C   UNL     1     144.605 169.027 187.227  0.00  0.00    -0.055 C 
ATOM     21  C   UNL     1     144.665 169.862 188.272  0.00  0.00    +0.023 C 
ATOM     22  C   UNL     1     144.914 169.409 189.657  0.00  0.00    +0.332 C 
ATOM     23  O   UNL     1     145.302 170.167 190.533  0.00  0.00    -0.246 OA
ATOM     24  O   UNL     1     144.588 168.102 189.807  0.00  0.00    -0.457 OA
ATOM     25  C   UNL     1     144.351 167.632 191.151  0.00  0.00    +0.114 C 
ATOM     26  C   UNL     1     142.792 167.553 191.326  0.00  0.00    +0.012 C 
ATOM     27  C   UNL     1     142.069 168.873 191.114  0.00  0.00    -0.079 C 
ATOM     28  C   UNL     1     142.332 170.030 191.748  0.00  0.00    -0.059 C 
ATOM     29  C   UNL     1     141.611 171.353 191.561  0.00  0.00    +0.079 C 
ATOM     30  C   UNL     1     142.442 172.240 190.617  0.00  0.00    +0.004 C 
ATOM     31  C   UNL     1     142.202 173.758 190.723  0.00  0.00    +0.064 C 
ATOM     32  H   UNL     1     140.287 173.489 189.764  0.00  0.00    +0.037 HD
ATOM     33  H   UNL     1     140.005 175.569 188.823  0.00  0.00    +0.057 HD
ATOM     34  H   UNL     1     142.009 176.658 190.879  0.00  0.00    +0.059 HD
ATOM     35  H   UNL     1     140.517 177.919 188.462  0.00  0.00    +0.064 HD
ATOM     36  H   UNL     1     142.429 179.619 188.570  0.00  0.00    +0.032 HD
ATOM     37  H   UNL     1     143.197 178.637 189.753  0.00  0.00    +0.032 HD
ATOM     38  H   UNL     1     143.546 176.806 188.150  0.00  0.00    +0.060 HD
ATOM     39  H   UNL     1     141.671 176.877 186.643  0.00  0.00    +0.036 HD
ATOM     40  H   UNL     1     143.988 177.903 184.931  0.00  0.00    +0.077 HD
ATOM     41  H   UNL     1     144.887 175.798 184.511  0.00  0.00    +0.068 HD
ATOM     42  H   UNL     1     141.564 173.711 184.608  0.00  0.00    +0.069 HD
ATOM     43  H   UNL     1     143.254 172.464 185.597  0.00  0.00    +0.034 HD
ATOM     44  H   UNL     1     144.071 173.297 186.901  0.00  0.00    +0.034 HD
ATOM     45  H   UNL     1     146.101 173.564 185.621  0.00  0.00    +0.060 HD
ATOM     46  H   UNL     1     146.007 171.370 186.539  0.00  0.00    +0.034 HD
ATOM     47  H   UNL     1     146.701 171.216 184.949  0.00  0.00    +0.034 HD
ATOM     48  H   UNL     1     143.618 168.636 185.409  0.00  0.00    +0.062 HD
ATOM     49  H   UNL     1     144.723 167.955 187.388  0.00  0.00    +0.062 HD
ATOM     50  H   UNL     1     144.529 170.931 188.171  0.00  0.00    +0.069 HD
ATOM     51  H   UNL     1     144.748 168.332 191.895  0.00  0.00    +0.074 HD
ATOM     52  H   UNL     1     142.407 166.895 190.538  0.00  0.00    +0.038 HD
ATOM     53  H   UNL     1     141.264 168.849 190.381  0.00  0.00    +0.057 HD
ATOM     54  H   UNL     1     143.146 170.067 192.467  0.00  0.00    +0.059 HD
ATOM     55  H   UNL     1     141.507 171.831 192.541  0.00  0.00    +0.064 HD
ATOM     56  H   UNL     1     142.263 171.935 189.578  0.00  0.00    +0.032 HD
ATOM     57  H   UNL     1     143.507 172.081 190.825  0.00  0.00    +0.032 HD
ATOM     58  H   UNL     1     142.874 174.216 189.982  0.00  0.00    +0.060 HD
ENDROOT
BRANCH   1  59
ATOM     59  C   UNL     1     139.881 174.385 191.680  0.00  0.00    -0.057 C 
ATOM     60  H   UNL     1     139.568 173.415 192.084  0.00  0.00    +0.024 HD
ATOM     61  H   UNL     1     140.433 174.906 192.472  0.00  0.00    +0.024 HD
ATOM     62  H   UNL     1     138.975 174.957 191.482  0.00  0.00    +0.024 HD
ENDBRANCH   1  59
BRANCH  26  63
ATOM     63  C   UNL     1     142.355 166.967 192.674  0.00  0.00    -0.056 C 
ATOM     64  H   UNL     1     143.215 166.793 193.330  0.00  0.00    +0.024 HD
ATOM     65  H   UNL     1     141.833 166.014 192.543  0.00  0.00    +0.024 HD
ATOM     66  H   UNL     1     141.688 167.652 193.207  0.00  0.00    +0.024 HD
ENDBRANCH  26  63
BRANCH  18  67
ATOM     67  C   UNL     1     144.358 170.363 183.614  0.00  0.00    -0.043 C 
ATOM     68  H   UNL     1     143.540 171.067 183.424  0.00  0.00    +0.027 HD
ATOM     69  H   UNL     1     145.191 170.660 182.972  0.00  0.00    +0.027 HD
ATOM     70  H   UNL     1     144.003 169.373 183.310  0.00  0.00    +0.027 HD
ENDBRANCH  18  67
BRANCH   7  71
ATOM     71  C   UNL     1     141.784 178.912 186.004  0.00  0.00    -0.057 C 
ATOM     72  H   UNL     1     140.912 179.139 186.625  0.00  0.00    +0.023 HD
ATOM     73  H   UNL     1     141.448 178.850 184.963  0.00  0.00    +0.023 HD
ATOM     74  H   UNL     1     142.448 179.776 186.093  0.00  0.00    +0.023 HD
ENDBRANCH   7  71
BRANCH  31  75
ATOM     75  O   UNL     1     142.648 174.215 192.004  0.00  0.00    -0.391 OA
ATOM     76  H   UNL     1     141.860 174.312 192.567  0.00  0.00    +0.210 HD
ENDBRANCH  31  75
BRANCH  25  77
ATOM     77  C   UNL     1     145.070 166.264 191.355  0.00  0.00    +0.020 C 
ATOM     78  H   UNL     1     144.463 165.715 192.081  0.00  0.00    +0.036 HD
BRANCH  77  79
ATOM     79  C   UNL     1     145.063 165.373 190.107  0.00  0.00    -0.057 C 
ATOM     80  H   UNL     1     146.079 165.222 189.724  0.00  0.00    +0.023 HD
ATOM     81  H   UNL     1     144.489 165.845 189.300  0.00  0.00    +0.023 HD
ATOM     82  H   UNL     1     144.639 164.384 190.294  0.00  0.00    +0.023 HD
ENDBRANCH  77  79
BRANCH  77  83
ATOM     83  C   UNL     1     146.482 166.394 192.025  0.00  0.00    +0.067 C 
ATOM     84  H   UNL     1     147.108 165.540 191.734  0.00  0.00    +0.060 HD
BRANCH  83  85
ATOM     85  C   UNL     1     146.553 166.550 193.576  0.00  0.00    -0.017 C 
ATOM     86  H   UNL     1     146.094 167.510 193.847  0.00  0.00    +0.032 HD
BRANCH  85  87
ATOM     87  C   UNL     1     145.812 165.450 194.337  0.00  0.00    -0.060 C 
ATOM     88  H   UNL     1     146.501 164.682 194.692  0.00  0.00    +0.023 HD
ATOM     89  H   UNL     1     145.264 165.854 195.195  0.00  0.00    +0.023 HD
ATOM     90  H   UNL     1     145.090 164.940 193.690  0.00  0.00    +0.023 HD
ENDBRANCH  85  87
BRANCH  85  91
ATOM     91  C   UNL     1     148.010 166.656 194.112  0.00  0.00    -0.041 C 
ATOM     92  H   UNL     1     147.976 166.581 195.205  0.00  0.00    +0.027 HD
ATOM     93  H   UNL     1     148.408 167.659 193.909  0.00  0.00    +0.027 HD
BRANCH  91  94
ATOM     94  C   UNL     1     148.985 165.614 193.558  0.00  0.00    +0.007 C 
ATOM     95  H   UNL     1     148.680 164.608 193.870  0.00  0.00    +0.034 HD
ATOM     96  H   UNL     1     149.005 165.639 192.463  0.00  0.00    +0.034 HD
BRANCH  94  97
ATOM     97  C   UNL     1     150.405 165.840 194.057  0.00  0.00    +0.139 C 
ATOM     98  O   UNL     1     150.672 165.922 195.257  0.00  0.00    -0.297 OA
BRANCH  97  99
ATOM     99  C   UNL     1     151.490 165.915 192.981  0.00  0.00    +0.041 C 
ATOM    100  H   UNL     1     151.511 164.937 192.482  0.00  0.00    +0.040 HD
BRANCH  99 101
ATOM    101  C   UNL     1     152.815 166.135 193.704  0.00  0.00    -0.053 C 
ATOM    102  H   UNL     1     153.661 165.841 193.076  0.00  0.00    +0.024 HD
ATOM    103  H   UNL     1     152.877 165.535 194.619  0.00  0.00    +0.024 HD
ATOM    104  H   UNL     1     152.939 167.183 194.001  0.00  0.00    +0.024 HD
ENDBRANCH  99 101
BRANCH  99 105
ATOM    105  C   UNL     1     151.114 166.990 191.941  0.00  0.00    +0.071 C 
ATOM    106  H   UNL     1     150.042 166.931 191.711  0.00  0.00    +0.061 HD
BRANCH 105 107
ATOM    107  C   UNL     1     151.477 168.434 192.361  0.00  0.00    -0.006 C 
ATOM    108  H   UNL     1     151.988 168.417 193.333  0.00  0.00    +0.033 HD
ATOM    109  H   UNL     1     152.215 168.845 191.661  0.00  0.00    +0.033 HD
BRANCH 107 110
ATOM    110  C   UNL     1     150.304 169.381 192.364  0.00  0.00    -0.067 C 
ATOM    111  C   UNL     1     150.379 170.645 191.925  0.00  0.00    -0.005 C 
ATOM    112  H   UNL     1     149.374 168.972 192.744  0.00  0.00    +0.059 HD
ATOM    113  H   UNL     1     151.330 171.022 191.542  0.00  0.00    +0.078 HD
BRANCH 111 114
ATOM    114  N   UNL     1     149.344 171.566 191.914  0.00  0.00    -0.284 N 
ATOM    115  C   UNL     1     149.173 172.423 193.000  0.00  0.00    +0.206 C 
ATOM    116  O   UNL     1     149.849 172.456 194.022  0.00  0.00    -0.279 OA
ATOM    117  H   UNL     1     148.321 173.113 192.867  0.00  0.00    +0.126 HD
BRANCH 114 118
ATOM    118  C   UNL     1     148.422 171.659 190.793  0.00  0.00    +0.007 C 
ATOM    119  H   UNL     1     147.529 172.211 191.103  0.00  0.00    +0.043 HD
ATOM    120  H   UNL     1     148.913 172.170 189.959  0.00  0.00    +0.043 HD
ATOM    121  H   UNL     1     148.114 170.665 190.451  0.00  0.00    +0.043 HD
ENDBRANCH 114 118
ENDBRANCH 111 114
ENDBRANCH 107 110
ENDBRANCH 105 107
BRANCH 105 122
ATOM    122  O   UNL     1     151.876 166.678 190.752  0.00  0.00    -0.379 OA
BRANCH 122 123
ATOM    123  C   UNL     1     151.418 165.497 190.103  0.00  0.00    +0.037 C 
ATOM    124  H   UNL     1     150.473 165.154 190.533  0.00  0.00    +0.052 HD
ATOM    125  H   UNL     1     152.172 164.707 190.175  0.00  0.00    +0.052 HD
ATOM    126  H   UNL     1     151.256 165.729 189.046  0.00  0.00    +0.052 HD
ENDBRANCH 122 123
ENDBRANCH 105 122
ENDBRANCH  99 105
ENDBRANCH  97  99
ENDBRANCH  94  97
ENDBRANCH  91  94
ENDBRANCH  85  91
ENDBRANCH  83  85
BRANCH  83 127
ATOM    127  O   UNL     1     147.083 167.602 191.494  0.00  0.00    -0.379 OA
BRANCH 127 128
ATOM    128  C   UNL     1     147.958 167.370 190.395  0.00  0.00    +0.037 C 
ATOM    129  H   UNL     1     148.500 166.440 190.585  0.00  0.00    +0.052 HD
ATOM    130  H   UNL     1     148.685 168.179 190.291  0.00  0.00    +0.052 HD
ATOM    131  H   UNL     1     147.389 167.259 189.468  0.00  0.00    +0.052 HD
ENDBRANCH 127 128
ENDBRANCH  83 127
ENDBRANCH  77  83
ENDBRANCH  25  77
BRANCH   9 132
ATOM    132  O   UNL     1     145.008 175.825 186.536  0.00  0.00    -0.384 OA
ATOM    133  H   UNL     1     145.267 176.756 186.688  0.00  0.00    +0.210 HD
ENDBRANCH   9 132
BRANCH  29 134
ATOM    134  O   UNL     1     140.318 171.158 190.969  0.00  0.00    -0.376 OA
BRANCH 134 135
ATOM    135  C   UNL     1     140.370 170.943 189.563  0.00  0.00    +0.037 C 
ATOM    136  H   UNL     1     141.251 171.414 189.120  0.00  0.00    +0.052 HD
ATOM    137  H   UNL     1     140.364 169.875 189.327  0.00  0.00    +0.052 HD
ATOM    138  H   UNL     1     139.479 171.400 189.119  0.00  0.00    +0.052 HD
ENDBRANCH 134 135
ENDBRANCH  29 134
BRANCH   6 139
ATOM    139  O   UNL     1     144.519 178.452 187.380  0.00  0.00    -0.379 OA
BRANCH 139 140
ATOM    140  C   UNL     1     144.690 179.758 187.922  0.00  0.00    +0.037 C 
ATOM    141  H   UNL     1     145.704 179.825 188.326  0.00  0.00    +0.052 HD
ATOM    142  H   UNL     1     144.590 180.517 187.141  0.00  0.00    +0.052 HD
ATOM    143  H   UNL     1     143.978 179.942 188.733  0.00  0.00    +0.052 HD
ENDBRANCH 139 140
ENDBRANCH   6 139
BRANCH  16 144
ATOM    144  O   UNL     1     145.302 173.147 183.764  0.00  0.00    -0.379 OA
BRANCH 144 145
ATOM    145  C   UNL     1     146.539 173.607 183.233  0.00  0.00    +0.037 C 
ATOM    146  H   UNL     1     146.351 174.021 182.238  0.00  0.00    +0.052 HD
ATOM    147  H   UNL     1     146.950 174.399 183.865  0.00  0.00    +0.052 HD
ATOM    148  H   UNL     1     147.261 172.793 183.135  0.00  0.00    +0.052 HD
ENDBRANCH 144 145
ENDBRANCH  16 144
BRANCH   4 149
ATOM    149  O   UNL     1     140.664 178.934 190.260  0.00  0.00    -0.376 OA
BRANCH 149 150
ATOM    150  C   UNL     1     141.131 178.726 191.589  0.00  0.00    +0.037 C 
ATOM    151  H   UNL     1     142.224 178.758 191.573  0.00  0.00    +0.052 HD
ATOM    152  H   UNL     1     140.826 177.744 191.958  0.00  0.00    +0.052 HD
ATOM    153  H   UNL     1     140.771 179.513 192.257  0.00  0.00    +0.052 HD
ENDBRANCH 149 150
ENDBRANCH   4 149
TORSDOF 33
ENDMDL
MODEL 2
REMARK VINA RESULT:      -5.6      3.843      7.666
REMARK  Name = Sphinxolide B_conf2
REMARK  33 active torsions:
REMARK  status: ('A' for Active; 'I' for Inactive)
REMARK    1  A    between atoms: C_1  and  C_2
REMARK    2  A    between atoms: C_5  and  O_67
REMARK    3  A    between atoms: C_7  and  O_65
REMARK    4  A    between atoms: C_8  and  C_64
REMARK    5  A    between atoms: C_10  and  O_63
REMARK    6  A    between atoms: C_17  and  O_61
REMARK    7  A    between atoms: C_19  and  C_60
REMARK    8  A    between atoms: C_26  and  C_37
REMARK    9  A    between atoms: C_27  and  C_36
REMARK   10  A    between atoms: C_30  and  O_34
REMARK   11  A    between atoms: C_32  and  O_33
REMARK   12  A    between atoms: O_34  and  C_35
REMARK   13  A    between atoms: C_37  and  C_38
REMARK   14  A    between atoms: C_37  and  C_39
REMARK   15  A    between atoms: C_39  and  C_40
REMARK   16  A    between atoms: C_39  and  O_58
REMARK   17  A    between atoms: C_40  and  C_41
REMARK   18  A    between atoms: C_40  and  C_42
REMARK   19  A    between atoms: C_42  and  C_43
REMARK   20  A    between atoms: C_43  and  C_44
REMARK   21  A    between atoms: C_44  and  C_46
REMARK   22  A    between atoms: C_46  and  C_47
REMARK   23  A    between atoms: C_46  and  C_48
REMARK   24  A    between atoms: C_48  and  C_49
REMARK   25  A    between atoms: C_48  and  O_56
REMARK   26  A    between atoms: C_49  and  C_50
REMARK   27  A    between atoms: C_51  and  N_52
REMARK   28  A    between atoms: N_52  and  C_53
REMARK   29  A    between atoms: O_56  and  C_57
REMARK   30  A    between atoms: O_58  and  C_59
REMARK   31  A    between atoms: O_61  and  C_62
REMARK   32  A    between atoms: O_65  and  C_66
REMARK   33  A    between atoms: O_67  and  C_68
REMARK                            x       y       z     vdW  Elec       q    Type
REMARK                         _______ _______ _______ _____ _____    ______ ____
ROOT
ATOM      1  C   UNL     1     136.446 170.796 190.098  0.00  0.00    +0.000 C 
ATOM      2  C   UNL     1     135.332 171.504 190.860  0.00  0.00    -0.080 C 
ATOM      3  C   UNL     1     134.678 170.998 191.921  0.00  0.00    -0.059 C 
ATOM      4  C   UNL     1     133.497 171.653 192.585  0.00  0.00    +0.079 C 
ATOM      5  C   UNL     1     133.710 171.808 194.098  0.00  0.00    +0.004 C 
ATOM      6  C   UNL     1     134.820 172.787 194.536  0.00  0.00    +0.067 C 
ATOM      7  C   UNL     1     134.665 174.236 193.992  0.00  0.00    +0.022 C 
ATOM      8  C   UNL     1     135.606 175.290 194.669  0.00  0.00    +0.138 C 
ATOM      9  C   UNL     1     137.131 175.025 194.755  0.00  0.00    +0.114 C 
ATOM     10  C   UNL     1     137.801 175.286 193.436  0.00  0.00    -0.029 C 
ATOM     11  C   UNL     1     137.214 176.109 192.551  0.00  0.00    +0.024 C 
ATOM     12  C   UNL     1     135.967 176.840 192.844  0.00  0.00    +0.332 C 
ATOM     13  O   UNL     1     135.523 177.661 192.053  0.00  0.00    -0.246 OA
ATOM     14  O   UNL     1     135.383 176.581 194.037  0.00  0.00    -0.455 OA
ATOM     15  C   UNL     1     139.195 174.742 193.185  0.00  0.00    -0.002 C 
ATOM     16  C   UNL     1     140.234 175.107 194.275  0.00  0.00    +0.066 C 
ATOM     17  C   UNL     1     141.693 174.794 193.831  0.00  0.00    -0.005 C 
ATOM     18  C   UNL     1     142.157 175.424 192.522  0.00  0.00    -0.070 C 
ATOM     19  C   UNL     1     142.713 174.783 191.476  0.00  0.00    -0.062 C 
ATOM     20  C   UNL     1     143.073 173.394 191.311  0.00  0.00    -0.055 C 
ATOM     21  C   UNL     1     142.316 172.325 191.589  0.00  0.00    +0.023 C 
ATOM     22  C   UNL     1     142.742 170.938 191.312  0.00  0.00    +0.332 C 
ATOM     23  O   UNL     1     142.228 169.974 191.858  0.00  0.00    -0.246 OA
ATOM     24  O   UNL     1     143.696 170.905 190.349  0.00  0.00    -0.457 OA
ATOM     25  C   UNL     1     143.895 169.652 189.661  0.00  0.00    +0.114 C 
ATOM     26  C   UNL     1     143.167 169.785 188.275  0.00  0.00    +0.012 C 
ATOM     27  C   UNL     1     141.680 170.080 188.372  0.00  0.00    -0.079 C 
ATOM     28  C   UNL     1     140.774 169.362 189.061  0.00  0.00    -0.059 C 
ATOM     29  C   UNL     1     139.283 169.633 189.156  0.00  0.00    +0.079 C 
ATOM     30  C   UNL     1     138.997 170.362 190.481  0.00  0.00    +0.004 C 
ATOM     31  C   UNL     1     137.562 170.245 191.026  0.00  0.00    +0.064 C 
ATOM     32  H   UNL     1     136.892 171.566 189.456  0.00  0.00    +0.037 HD
ATOM     33  H   UNL     1     135.018 172.461 190.444  0.00  0.00    +0.057 HD
ATOM     34  H   UNL     1     134.955 170.015 192.301  0.00  0.00    +0.059 HD
ATOM     35  H   UNL     1     133.272 172.624 192.131  0.00  0.00    +0.064 HD
ATOM     36  H   UNL     1     132.762 172.081 194.581  0.00  0.00    +0.032 HD
ATOM     37  H   UNL     1     133.919 170.812 194.511  0.00  0.00    +0.032 HD
ATOM     38  H   UNL     1     135.775 172.388 194.178  0.00  0.00    +0.060 HD
ATOM     39  H   UNL     1     134.868 174.225 192.915  0.00  0.00    +0.036 HD
ATOM     40  H   UNL     1     135.260 175.415 195.705  0.00  0.00    +0.077 HD
ATOM     41  H   UNL     1     137.554 175.736 195.477  0.00  0.00    +0.068 HD
ATOM     42  H   UNL     1     137.675 176.365 191.604  0.00  0.00    +0.069 HD
ATOM     43  H   UNL     1     139.536 175.118 192.213  0.00  0.00    +0.034 HD
ATOM     44  H   UNL     1     139.145 173.649 193.081  0.00  0.00    +0.034 HD
ATOM     45  H   UNL     1     140.018 174.501 195.164  0.00  0.00    +0.060 HD
ATOM     46  H   UNL     1     141.803 173.706 193.805  0.00  0.00    +0.034 HD
ATOM     47  H   UNL     1     142.387 175.136 194.608  0.00  0.00    +0.034 HD
ATOM     48  H   UNL     1     143.030 175.383 190.621  0.00  0.00    +0.062 HD
ATOM     49  H   UNL     1     144.046 173.256 190.839  0.00  0.00    +0.062 HD
ATOM     50  H   UNL     1     141.332 172.409 192.034  0.00  0.00    +0.069 HD
ATOM     51  H   UNL     1     143.443 168.818 190.210  0.00  0.00    +0.074 HD
ATOM     52  H   UNL     1     143.592 170.658 187.765  0.00  0.00    +0.038 HD
ATOM     53  H   UNL     1     141.343 170.955 187.819  0.00  0.00    +0.057 HD
ATOM     54  H   UNL     1     141.105 168.498 189.631  0.00  0.00    +0.059 HD
ATOM     55  H   UNL     1     138.755 168.673 189.128  0.00  0.00    +0.064 HD
ATOM     56  H   UNL     1     139.237 171.428 190.369  0.00  0.00    +0.032 HD
ATOM     57  H   UNL     1     139.656 169.959 191.259  0.00  0.00    +0.032 HD
ATOM     58  H   UNL     1     137.552 170.824 191.962  0.00  0.00    +0.060 HD
ENDROOT
BRANCH   1  59
ATOM     59  C   UNL     1     135.792 169.731 189.209  0.00  0.00    -0.057 C 
ATOM     60  H   UNL     1     136.467 169.389 188.417  0.00  0.00    +0.024 HD
ATOM     61  H   UNL     1     135.513 168.851 189.803  0.00  0.00    +0.024 HD
ATOM     62  H   UNL     1     134.888 170.098 188.723  0.00  0.00    +0.024 HD
ENDBRANCH   1  59
BRANCH  26  63
ATOM     63  C   UNL     1     143.365 168.571 187.359  0.00  0.00    -0.056 C 
ATOM     64  H   UNL     1     142.961 168.758 186.358  0.00  0.00    +0.024 HD
ATOM     65  H   UNL     1     142.868 167.683 187.762  0.00  0.00    +0.024 HD
ATOM     66  H   UNL     1     144.427 168.340 187.229  0.00  0.00    +0.024 HD
ENDBRANCH  26  63
BRANCH  18  67
ATOM     67  C   UNL     1     142.030 176.932 192.451  0.00  0.00    -0.043 C 
ATOM     68  H   UNL     1     140.992 177.265 192.560  0.00  0.00    +0.027 HD
ATOM     69  H   UNL     1     142.604 177.412 193.247  0.00  0.00    +0.027 HD
ATOM     70  H   UNL     1     142.382 177.298 191.482  0.00  0.00    +0.027 HD
ENDBRANCH  18  67
BRANCH   7  71
ATOM     71  C   UNL     1     133.212 174.749 194.159  0.00  0.00    -0.057 C 
ATOM     72  H   UNL     1     132.970 174.946 195.207  0.00  0.00    +0.023 HD
ATOM     73  H   UNL     1     132.491 174.015 193.780  0.00  0.00    +0.023 HD
ATOM     74  H   UNL     1     133.044 175.690 193.630  0.00  0.00    +0.023 HD
ENDBRANCH   7  71
BRANCH  31  75
ATOM     75  O   UNL     1     137.309 168.886 191.394  0.00  0.00    -0.391 OA
ATOM     76  H   UNL     1     136.520 168.881 191.963  0.00  0.00    +0.210 HD
ENDBRANCH  31  75
BRANCH  25  77
ATOM     77  C   UNL     1     145.422 169.367 189.537  0.00  0.00    +0.020 C 
ATOM     78  H   UNL     1     145.662 169.492 188.477  0.00  0.00    +0.036 HD
BRANCH  77  79
ATOM     79  C   UNL     1     146.301 170.402 190.248  0.00  0.00    -0.057 C 
ATOM     80  H   UNL     1     147.236 170.569 189.702  0.00  0.00    +0.023 HD
ATOM     81  H   UNL     1     146.579 170.049 191.248  0.00  0.00    +0.023 HD
ATOM     82  H   UNL     1     145.813 171.374 190.352  0.00  0.00    +0.023 HD
ENDBRANCH  77  79
BRANCH  77  83
ATOM     83  C   UNL     1     145.810 167.883 189.865  0.00  0.00    +0.067 C 
ATOM     84  H   UNL     1     145.164 167.200 189.299  0.00  0.00    +0.060 HD
BRANCH  83  85
ATOM     85  C   UNL     1     145.812 167.433 191.360  0.00  0.00    -0.017 C 
ATOM     86  H   UNL     1     145.706 168.326 191.989  0.00  0.00    +0.032 HD
BRANCH  85  87
ATOM     87  C   UNL     1     144.671 166.478 191.714  0.00  0.00    -0.060 C 
ATOM     88  H   UNL     1     143.815 167.019 192.120  0.00  0.00    +0.023 HD
ATOM     89  H   UNL     1     144.342 165.904 190.842  0.00  0.00    +0.023 HD
ATOM     90  H   UNL     1     144.978 165.765 192.487  0.00  0.00    +0.023 HD
ENDBRANCH  85  87
BRANCH  85  91
ATOM     91  C   UNL     1     147.165 166.807 191.805  0.00  0.00    -0.041 C 
ATOM     92  H   UNL     1     147.726 166.532 190.904  0.00  0.00    +0.027 HD
ATOM     93  H   UNL     1     146.981 165.856 192.324  0.00  0.00    +0.027 HD
BRANCH  91  94
ATOM     94  C   UNL     1     148.033 167.698 192.696  0.00  0.00    +0.007 C 
ATOM     95  H   UNL     1     148.407 168.554 192.123  0.00  0.00    +0.034 HD
ATOM     96  H   UNL     1     147.458 168.083 193.546  0.00  0.00    +0.034 HD
BRANCH  94  97
ATOM     97  C   UNL     1     149.238 166.950 193.249  0.00  0.00    +0.139 C 
ATOM     98  O   UNL     1     149.245 166.465 194.381  0.00  0.00    -0.297 OA
BRANCH  97  99
ATOM     99  C   UNL     1     150.426 166.796 192.297  0.00  0.00    +0.041 C 
ATOM    100  H   UNL     1     150.261 165.871 191.728  0.00  0.00    +0.040 HD
BRANCH  99 101
ATOM    101  C   UNL     1     151.670 166.631 193.165  0.00  0.00    -0.053 C 
ATOM    102  H   UNL     1     151.495 165.916 193.973  0.00  0.00    +0.024 HD
ATOM    103  H   UNL     1     151.957 167.579 193.637  0.00  0.00    +0.024 HD
ATOM    104  H   UNL     1     152.529 166.298 192.572  0.00  0.00    +0.024 HD
ENDBRANCH  99 101
BRANCH  99 105
ATOM    105  C   UNL     1     150.456 167.981 191.311  0.00  0.00    +0.071 C 
ATOM    106  H   UNL     1     149.443 168.379 191.171  0.00  0.00    +0.061 HD
BRANCH 105 107
ATOM    107  C   UNL     1     151.412 169.126 191.724  0.00  0.00    -0.006 C 
ATOM    108  H   UNL     1     152.225 168.722 192.341  0.00  0.00    +0.033 HD
ATOM    109  H   UNL     1     151.908 169.529 190.832  0.00  0.00    +0.033 HD
BRANCH 107 110
ATOM    110  C   UNL     1     150.721 170.283 192.398  0.00  0.00    -0.067 C 
ATOM    111  C   UNL     1     149.890 171.118 191.758  0.00  0.00    -0.005 C 
ATOM    112  H   UNL     1     150.933 170.403 193.456  0.00  0.00    +0.059 HD
ATOM    113  H   UNL     1     149.693 170.963 190.694  0.00  0.00    +0.078 HD
BRANCH 111 114
ATOM    114  N   UNL     1     149.237 172.205 192.316  0.00  0.00    -0.284 N 
ATOM    115  C   UNL     1     148.689 173.181 191.485  0.00  0.00    +0.206 C 
ATOM    116  O   UNL     1     148.728 173.207 190.260  0.00  0.00    -0.279 OA
ATOM    117  H   UNL     1     148.191 173.988 192.049  0.00  0.00    +0.126 HD
BRANCH 114 118
ATOM    118  C   UNL     1     149.111 172.356 193.757  0.00  0.00    +0.007 C 
ATOM    119  H   UNL     1     150.066 172.698 194.170  0.00  0.00    +0.043 HD
ATOM    120  H   UNL     1     148.320 173.079 193.979  0.00  0.00    +0.043 HD
ATOM    121  H   UNL     1     148.849 171.405 194.233  0.00  0.00    +0.043 HD
ENDBRANCH 114 118
ENDBRANCH 111 114
ENDBRANCH 107 110
ENDBRANCH 105 107
BRANCH 105 122
ATOM    122  O   UNL     1     150.937 167.444 190.057  0.00  0.00    -0.379 OA
BRANCH 122 123
ATOM    123  C   UNL     1     150.368 166.175 189.752  0.00  0.00    +0.037 C 
ATOM    124  H   UNL     1     150.993 165.363 190.133  0.00  0.00    +0.052 HD
ATOM    125  H   UNL     1     150.232 166.070 188.671  0.00  0.00    +0.052 HD
ATOM    126  H   UNL     1     149.388 166.116 190.234  0.00  0.00    +0.052 HD
ENDBRANCH 122 123
ENDBRANCH 105 122
ENDBRANCH  99 105
ENDBRANCH  97  99
ENDBRANCH  94  97
ENDBRANCH  91  94
ENDBRANCH  85  91
ENDBRANCH  83  85
BRANCH  83 127
ATOM    127  O   UNL     1     147.175 167.701 189.412  0.00  0.00    -0.379 OA
BRANCH 127 128
ATOM    128  C   UNL     1     147.291 167.527 188.004  0.00  0.00    +0.037 C 
ATOM    129  H   UNL     1     147.031 166.491 187.769  0.00  0.00    +0.052 HD
ATOM    130  H   UNL     1     148.313 167.712 187.665  0.00  0.00    +0.052 HD
ATOM    131  H   UNL     1     146.598 168.188 187.477  0.00  0.00    +0.052 HD
ENDBRANCH 127 128
ENDBRANCH  83 127
ENDBRANCH  77  83
ENDBRANCH  25  77
BRANCH   9 132
ATOM    132  O   UNL     1     137.460 173.727 195.215  0.00  0.00    -0.384 OA
ATOM    133  H   UNL     1     137.744 173.222 194.427  0.00  0.00    +0.210 HD
ENDBRANCH   9 132
BRANCH  29 134
ATOM    134  O   UNL     1     138.839 170.470 188.079  0.00  0.00    -0.376 OA
BRANCH 134 135
ATOM    135  C   UNL     1     138.484 169.740 186.910  0.00  0.00    +0.037 C 
ATOM    136  H   UNL     1     138.928 170.181 186.014  0.00  0.00    +0.052 HD
ATOM    137  H   UNL     1     138.783 168.692 186.993  0.00  0.00    +0.052 HD
ATOM    138  H   UNL     1     137.394 169.780 186.806  0.00  0.00    +0.052 HD
ENDBRANCH 134 135
ENDBRANCH  29 134
BRANCH   6 139
ATOM    139  O   UNL     1     134.896 172.890 195.973  0.00  0.00    -0.379 OA
BRANCH 139 140
ATOM    140  C   UNL     1     133.895 172.164 196.680  0.00  0.00    +0.037 C 
ATOM    141  H   UNL     1     134.073 172.300 197.752  0.00  0.00    +0.052 HD
ATOM    142  H   UNL     1     132.899 172.557 196.454  0.00  0.00    +0.052 HD
ATOM    143  H   UNL     1     133.951 171.095 196.451  0.00  0.00    +0.052 HD
ENDBRANCH 139 140
ENDBRANCH   6 139
BRANCH  16 144
ATOM    144  O   UNL     1     140.095 176.493 194.626  0.00  0.00    -0.379 OA
BRANCH 144 145
ATOM    145  C   UNL     1     140.360 176.757 195.998  0.00  0.00    +0.037 C 
ATOM    146  H   UNL     1     140.820 177.747 196.074  0.00  0.00    +0.052 HD
ATOM    147  H   UNL     1     139.428 176.765 196.569  0.00  0.00    +0.052 HD
ATOM    148  H   UNL     1     141.052 176.025 196.422  0.00  0.00    +0.052 HD
ENDBRANCH 144 145
ENDBRANCH  16 144
BRANCH   4 149
ATOM    149  O   UNL     1     132.356 170.792 192.433  0.00  0.00    -0.376 OA
BRANCH 149 150
ATOM    150  C   UNL     1     131.864 170.285 193.668  0.00  0.00    +0.037 C 
ATOM    151  H   UNL     1     130.829 169.966 193.516  0.00  0.00    +0.052 HD
ATOM    152  H   UNL     1     131.872 171.061 194.437  0.00  0.00    +0.052 HD
ATOM    153  H   UNL     1     132.448 169.419 193.995  0.00  0.00    +0.052 HD
ENDBRANCH 149 150
ENDBRANCH   4 149
TORSDOF 33
ENDMDL
MODEL 3
REMARK VINA RESULT:      -5.6      5.379     12.580
REMARK  Name = Sphinxolide B_conf2
REMARK  33 active torsions:
REMARK  status: ('A' for Active; 'I' for Inactive)
REMARK    1  A    between atoms: C_1  and  C_2
REMARK    2  A    between atoms: C_5  and  O_67
REMARK    3  A    between atoms: C_7  and  O_65
REMARK    4  A    between atoms: C_8  and  C_64
REMARK    5  A    between atoms: C_10  and  O_63
REMARK    6  A    between atoms: C_17  and  O_61
REMARK    7  A    between atoms: C_19  and  C_60
REMARK    8  A    between atoms: C_26  and  C_37
REMARK    9  A    between atoms: C_27  and  C_36
REMARK   10  A    between atoms: C_30  and  O_34
REMARK   11  A    between atoms: C_32  and  O_33
REMARK   12  A    between atoms: O_34  and  C_35
REMARK   13  A    between atoms: C_37  and  C_38
REMARK   14  A    between atoms: C_37  and  C_39
REMARK   15  A    between atoms: C_39  and  C_40
REMARK   16  A    between atoms: C_39  and  O_58
REMARK   17  A    between atoms: C_40  and  C_41
REMARK   18  A    between atoms: C_40  and  C_42
REMARK   19  A    between atoms: C_42  and  C_43
REMARK   20  A    between atoms: C_43  and  C_44
REMARK   21  A    between atoms: C_44  and  C_46
REMARK   22  A    between atoms: C_46  and  C_47
REMARK   23  A    between atoms: C_46  and  C_48
REMARK   24  A    between atoms: C_48  and  C_49
REMARK   25  A    between atoms: C_48  and  O_56
REMARK   26  A    between atoms: C_49  and  C_50
REMARK   27  A    between atoms: C_51  and  N_52
REMARK   28  A    between atoms: N_52  and  C_53
REMARK   29  A    between atoms: O_56  and  C_57
REMARK   30  A    between atoms: O_58  and  C_59
REMARK   31  A    between atoms: O_61  and  C_62
REMARK   32  A    between atoms: O_65  and  C_66
REMARK   33  A    between atoms: O_67  and  C_68
REMARK                            x       y       z     vdW  Elec       q    Type
REMARK                         _______ _______ _______ _____ _____    ______ ____
ROOT
ATOM      1  C   UNL     1     151.548 165.119 187.110  0.00  0.00    +0.000 C 
ATOM      2  C   UNL     1     152.580 164.024 186.871  0.00  0.00    -0.080 C 
ATOM      3  C   UNL     1     153.533 163.655 187.746  0.00  0.00    -0.059 C 
ATOM      4  C   UNL     1     154.623 162.662 187.450  0.00  0.00    +0.079 C 
ATOM      5  C   UNL     1     154.678 161.547 188.505  0.00  0.00    +0.004 C 
ATOM      6  C   UNL     1     153.469 160.588 188.552  0.00  0.00    +0.067 C 
ATOM      7  C   UNL     1     153.155 159.867 187.210  0.00  0.00    +0.022 C 
ATOM      8  C   UNL     1     152.134 158.684 187.330  0.00  0.00    +0.138 C 
ATOM      9  C   UNL     1     150.768 158.907 188.028  0.00  0.00    +0.114 C 
ATOM     10  C   UNL     1     149.810 159.631 187.125  0.00  0.00    -0.029 C 
ATOM     11  C   UNL     1     149.993 159.580 185.795  0.00  0.00    +0.024 C 
ATOM     12  C   UNL     1     151.054 158.774 185.164  0.00  0.00    +0.332 C 
ATOM     13  O   UNL     1     151.120 158.668 183.947  0.00  0.00    -0.246 OA
ATOM     14  O   UNL     1     151.906 158.137 186.002  0.00  0.00    -0.455 OA
ATOM     15  C   UNL     1     148.571 160.278 187.715  0.00  0.00    -0.002 C 
ATOM     16  C   UNL     1     147.708 159.336 188.591  0.00  0.00    +0.066 C 
ATOM     17  C   UNL     1     146.313 159.944 188.918  0.00  0.00    -0.005 C 
ATOM     18  C   UNL     1     145.462 160.376 187.729  0.00  0.00    -0.070 C 
ATOM     19  C   UNL     1     144.887 161.581 187.549  0.00  0.00    -0.062 C 
ATOM     20  C   UNL     1     144.854 162.742 188.408  0.00  0.00    -0.055 C 
ATOM     21  C   UNL     1     145.890 163.308 189.040  0.00  0.00    +0.023 C 
ATOM     22  C   UNL     1     145.772 164.546 189.838  0.00  0.00    +0.332 C 
ATOM     23  O   UNL     1     146.603 164.868 190.673  0.00  0.00    -0.246 OA
ATOM     24  O   UNL     1     144.686 165.265 189.462  0.00  0.00    -0.457 OA
ATOM     25  C   UNL     1     144.671 166.666 189.811  0.00  0.00    +0.114 C 
ATOM     26  C   UNL     1     145.058 167.453 188.509  0.00  0.00    +0.012 C 
ATOM     27  C   UNL     1     146.416 167.088 187.935  0.00  0.00    -0.079 C 
ATOM     28  C   UNL     1     147.587 167.112 188.597  0.00  0.00    -0.059 C 
ATOM     29  C   UNL     1     148.955 166.766 188.036  0.00  0.00    +0.079 C 
ATOM     30  C   UNL     1     149.307 165.324 188.443  0.00  0.00    +0.004 C 
ATOM     31  C   UNL     1     150.805 164.969 188.465  0.00  0.00    +0.064 C 
ATOM     32  H   UNL     1     150.809 165.001 186.306  0.00  0.00    +0.037 HD
ATOM     33  H   UNL     1     152.562 163.575 185.879  0.00  0.00    +0.057 HD
ATOM     34  H   UNL     1     153.585 164.146 188.718  0.00  0.00    +0.059 HD
ATOM     35  H   UNL     1     154.509 162.232 186.449  0.00  0.00    +0.064 HD
ATOM     36  H   UNL     1     155.606 160.970 188.389  0.00  0.00    +0.032 HD
ATOM     37  H   UNL     1     154.805 162.022 189.488  0.00  0.00    +0.032 HD
ATOM     38  H   UNL     1     152.590 161.175 188.840  0.00  0.00    +0.060 HD
ATOM     39  H   UNL     1     152.754 160.606 186.507  0.00  0.00    +0.036 HD
ATOM     40  H   UNL     1     152.634 157.881 187.888  0.00  0.00    +0.077 HD
ATOM     41  H   UNL     1     150.333 157.920 188.233  0.00  0.00    +0.068 HD
ATOM     42  H   UNL     1     149.307 160.047 185.098  0.00  0.00    +0.069 HD
ATOM     43  H   UNL     1     147.965 160.667 186.888  0.00  0.00    +0.034 HD
ATOM     44  H   UNL     1     148.867 161.156 188.306  0.00  0.00    +0.034 HD
ATOM     45  H   UNL     1     148.236 159.179 189.540  0.00  0.00    +0.060 HD
ATOM     46  H   UNL     1     146.471 160.775 189.612  0.00  0.00    +0.034 HD
ATOM     47  H   UNL     1     145.722 159.209 189.477  0.00  0.00    +0.034 HD
ATOM     48  H   UNL     1     144.271 161.725 186.659  0.00  0.00    +0.062 HD
ATOM     49  H   UNL     1     143.872 163.212 188.456  0.00  0.00    +0.062 HD
ATOM     50  H   UNL     1     146.890 162.895 189.004  0.00  0.00    +0.069 HD
ATOM     51  H   UNL     1     145.412 166.893 190.586  0.00  0.00    +0.074 HD
ATOM     52  H   UNL     1     144.341 167.170 187.729  0.00  0.00    +0.038 HD
ATOM     53  H   UNL     1     146.413 166.790 186.887  0.00  0.00    +0.057 HD
ATOM     54  H   UNL     1     147.597 167.390 189.648  0.00  0.00    +0.059 HD
ATOM     55  H   UNL     1     149.686 167.469 188.451  0.00  0.00    +0.064 HD
ATOM     56  H   UNL     1     148.795 164.621 187.773  0.00  0.00    +0.032 HD
ATOM     57  H   UNL     1     148.932 165.139 189.458  0.00  0.00    +0.032 HD
ATOM     58  H   UNL     1     150.854 163.913 188.773  0.00  0.00    +0.060 HD
ENDROOT
BRANCH   1  59
ATOM     59  C   UNL     1     152.257 166.468 186.934  0.00  0.00    -0.057 C 
ATOM     60  H   UNL     1     151.965 166.964 186.002  0.00  0.00    +0.024 HD
ATOM     61  H   UNL     1     152.005 167.147 187.758  0.00  0.00    +0.024 HD
ATOM     62  H   UNL     1     153.341 166.363 186.915  0.00  0.00    +0.024 HD
ENDBRANCH   1  59
BRANCH  26  63
ATOM     63  C   UNL     1     144.989 168.977 188.669  0.00  0.00    -0.056 C 
ATOM     64  H   UNL     1     145.509 169.305 189.576  0.00  0.00    +0.024 HD
ATOM     65  H   UNL     1     143.953 169.325 188.732  0.00  0.00    +0.024 HD
ATOM     66  H   UNL     1     145.471 169.488 187.830  0.00  0.00    +0.024 HD
ENDBRANCH  26  63
BRANCH  18  67
ATOM     67  C   UNL     1     145.199 159.298 186.698  0.00  0.00    -0.043 C 
ATOM     68  H   UNL     1     146.107 159.013 186.156  0.00  0.00    +0.027 HD
ATOM     69  H   UNL     1     144.810 158.391 187.169  0.00  0.00    +0.027 HD
ATOM     70  H   UNL     1     144.480 159.652 185.952  0.00  0.00    +0.027 HD
ENDBRANCH  18  67
BRANCH   7  71
ATOM     71  C   UNL     1     154.440 159.297 186.561  0.00  0.00    -0.057 C 
ATOM     72  H   UNL     1     154.336 159.198 185.477  0.00  0.00    +0.023 HD
ATOM     73  H   UNL     1     154.679 158.307 186.967  0.00  0.00    +0.023 HD
ATOM     74  H   UNL     1     155.306 159.944 186.721  0.00  0.00    +0.023 HD
ENDBRANCH   7  71
BRANCH  31  75
ATOM     75  O   UNL     1     151.450 165.718 189.499  0.00  0.00    -0.391 OA
ATOM     76  H   UNL     1     151.073 166.616 189.485  0.00  0.00    +0.210 HD
ENDBRANCH  31  75
BRANCH  25  77
ATOM     77  C   UNL     1     143.266 167.043 190.372  0.00  0.00    +0.020 C 
ATOM     78  H   UNL     1     142.837 167.745 189.650  0.00  0.00    +0.036 HD
BRANCH  77  79
ATOM     79  C   UNL     1     142.277 165.872 190.394  0.00  0.00    -0.057 C 
ATOM     80  H   UNL     1     142.331 165.327 191.344  0.00  0.00    +0.023 HD
ATOM     81  H   UNL     1     142.515 165.152 189.603  0.00  0.00    +0.023 HD
ATOM     82  H   UNL     1     141.239 166.190 190.265  0.00  0.00    +0.023 HD
ENDBRANCH  77  79
BRANCH  77  83
ATOM     83  C   UNL     1     143.325 167.840 191.722  0.00  0.00    +0.067 C 
ATOM     84  H   UNL     1     144.231 168.460 191.744  0.00  0.00    +0.060 HD
BRANCH  83  85
ATOM     85  C   UNL     1     143.245 167.039 193.058  0.00  0.00    -0.017 C 
ATOM     86  H   UNL     1     143.464 167.726 193.886  0.00  0.00    +0.032 HD
BRANCH  85  87
ATOM     87  C   UNL     1     141.871 166.421 193.321  0.00  0.00    -0.060 C 
ATOM     88  H   UNL     1     141.316 166.283 192.392  0.00  0.00    +0.023 HD
ATOM     89  H   UNL     1     141.954 165.455 193.828  0.00  0.00    +0.023 HD
ATOM     90  H   UNL     1     141.257 167.076 193.950  0.00  0.00    +0.023 HD
ENDBRANCH  85  87
BRANCH  85  91
ATOM     91  C   UNL     1     144.336 165.936 193.174  0.00  0.00    -0.041 C 
ATOM     92  H   UNL     1     144.396 165.415 192.211  0.00  0.00    +0.027 HD
ATOM     93  H   UNL     1     144.014 165.169 193.891  0.00  0.00    +0.027 HD
BRANCH  91  94
ATOM     94  C   UNL     1     145.727 166.435 193.573  0.00  0.00    +0.007 C 
ATOM     95  H   UNL     1     146.368 166.513 192.688  0.00  0.00    +0.034 HD
ATOM     96  H   UNL     1     145.669 167.424 194.040  0.00  0.00    +0.034 HD
BRANCH  94  97
ATOM     97  C   UNL     1     146.410 165.494 194.555  0.00  0.00    +0.139 C 
ATOM     98  O   UNL     1     145.993 164.354 194.768  0.00  0.00    -0.297 OA
BRANCH  97  99
ATOM     99  C   UNL     1     147.673 166.030 195.231  0.00  0.00    +0.041 C 
ATOM    100  H   UNL     1     147.709 165.588 196.236  0.00  0.00    +0.040 HD
BRANCH  99 101
ATOM    101  C   UNL     1     147.502 167.541 195.356  0.00  0.00    -0.053 C 
ATOM    102  H   UNL     1     148.037 168.065 194.560  0.00  0.00    +0.024 HD
ATOM    103  H   UNL     1     147.903 167.912 196.307  0.00  0.00    +0.024 HD
ATOM    104  H   UNL     1     146.444 167.826 195.324  0.00  0.00    +0.024 HD
ENDBRANCH  99 101
BRANCH  99 105
ATOM    105  C   UNL     1     148.916 165.565 194.446  0.00  0.00    +0.071 C 
ATOM    106  H   UNL     1     148.965 164.468 194.434  0.00  0.00    +0.061 HD
BRANCH 105 107
ATOM    107  C   UNL     1     148.989 166.104 192.997  0.00  0.00    -0.006 C 
ATOM    108  H   UNL     1     149.376 165.321 192.331  0.00  0.00    +0.033 HD
ATOM    109  H   UNL     1     147.975 166.310 192.631  0.00  0.00    +0.033 HD
BRANCH 107 110
ATOM    110  C   UNL     1     149.770 167.386 192.863  0.00  0.00    -0.067 C 
ATOM    111  C   UNL     1     149.269 168.497 192.304  0.00  0.00    -0.005 C 
ATOM    112  H   UNL     1     150.781 167.362 193.257  0.00  0.00    +0.059 HD
ATOM    113  H   UNL     1     148.245 168.489 191.924  0.00  0.00    +0.078 HD
BRANCH 111 114
ATOM    114  N   UNL     1     149.938 169.699 192.139  0.00  0.00    -0.284 N 
ATOM    115  C   UNL     1     149.247 170.900 192.295  0.00  0.00    +0.206 C 
ATOM    116  O   UNL     1     148.058 171.032 192.559  0.00  0.00    -0.279 OA
ATOM    117  H   UNL     1     149.892 171.783 192.146  0.00  0.00    +0.126 HD
BRANCH 114 118
ATOM    118  C   UNL     1     151.352 169.740 191.800  0.00  0.00    +0.007 C 
ATOM    119  H   UNL     1     151.608 168.856 191.206  0.00  0.00    +0.043 HD
ATOM    120  H   UNL     1     151.565 170.652 191.235  0.00  0.00    +0.043 HD
ATOM    121  H   UNL     1     151.975 169.743 192.701  0.00  0.00    +0.043 HD
ENDBRANCH 114 118
ENDBRANCH 111 114
ENDBRANCH 107 110
ENDBRANCH 105 107
BRANCH 105 122
ATOM    122  O   UNL     1     150.059 166.087 195.162  0.00  0.00    -0.379 OA
BRANCH 122 123
ATOM    123  C   UNL     1     150.438 165.264 196.260  0.00  0.00    +0.037 C 
ATOM    124  H   UNL     1     151.487 164.967 196.185  0.00  0.00    +0.052 HD
ATOM    125  H   UNL     1     149.797 164.378 196.310  0.00  0.00    +0.052 HD
ATOM    126  H   UNL     1     150.305 165.842 197.180  0.00  0.00    +0.052 HD
ENDBRANCH 122 123
ENDBRANCH 105 122
ENDBRANCH  99 105
ENDBRANCH  97  99
ENDBRANCH  94  97
ENDBRANCH  91  94
ENDBRANCH  85  91
ENDBRANCH  83  85
BRANCH  83 127
ATOM    127  O   UNL     1     142.171 168.717 191.736  0.00  0.00    -0.379 OA
BRANCH 127 128
ATOM    128  C   UNL     1     142.476 170.069 191.410  0.00  0.00    +0.037 C 
ATOM    129  H   UNL     1     143.560 170.195 191.470  0.00  0.00    +0.052 HD
ATOM    130  H   UNL     1     142.008 170.761 192.114  0.00  0.00    +0.052 HD
ATOM    131  H   UNL     1     142.154 170.301 190.391  0.00  0.00    +0.052 HD
ENDBRANCH 127 128
ENDBRANCH  83 127
ENDBRANCH  77  83
ENDBRANCH  25  77
BRANCH   9 132
ATOM    132  O   UNL     1     150.864 159.581 189.270  0.00  0.00    -0.384 OA
ATOM    133  H   UNL     1     151.390 160.388 189.102  0.00  0.00    +0.210 HD
ENDBRANCH   9 132
BRANCH  29 134
ATOM    134  O   UNL     1     148.960 166.840 186.603  0.00  0.00    -0.376 OA
BRANCH 134 135
ATOM    135  C   UNL     1     149.095 168.169 186.110  0.00  0.00    +0.037 C 
ATOM    136  H   UNL     1     149.248 168.882 186.923  0.00  0.00    +0.052 HD
ATOM    137  H   UNL     1     149.917 168.243 185.394  0.00  0.00    +0.052 HD
ATOM    138  H   UNL     1     148.164 168.433 185.595  0.00  0.00    +0.052 HD
ENDBRANCH 134 135
ENDBRANCH  29 134
BRANCH   6 139
ATOM    139  O   UNL     1     153.653 159.555 189.543  0.00  0.00    -0.379 OA
BRANCH 139 140
ATOM    140  C   UNL     1     155.010 159.273 189.871  0.00  0.00    +0.037 C 
ATOM    141  H   UNL     1     155.572 159.186 188.936  0.00  0.00    +0.052 HD
ATOM    142  H   UNL     1     155.447 160.093 190.449  0.00  0.00    +0.052 HD
ATOM    143  H   UNL     1     155.093 158.328 190.418  0.00  0.00    +0.052 HD
ENDBRANCH 139 140
ENDBRANCH   6 139
BRANCH  16 144
ATOM    144  O   UNL     1     147.568 158.065 187.936  0.00  0.00    -0.379 OA
BRANCH 144 145
ATOM    145  C   UNL     1     147.506 156.968 188.839  0.00  0.00    +0.037 C 
ATOM    146  H   UNL     1     147.685 157.346 189.849  0.00  0.00    +0.052 HD
ATOM    147  H   UNL     1     146.512 156.512 188.812  0.00  0.00    +0.052 HD
ATOM    148  H   UNL     1     148.268 156.219 188.613  0.00  0.00    +0.052 HD
ENDBRANCH 144 145
ENDBRANCH  16 144
BRANCH   4 149
ATOM    149  O   UNL     1     155.887 163.339 187.525  0.00  0.00    -0.376 OA
BRANCH 149 150
ATOM    150  C   UNL     1     155.913 164.380 188.496  0.00  0.00    +0.037 C 
ATOM    151  H   UNL     1     155.583 163.962 189.451  0.00  0.00    +0.052 HD
ATOM    152  H   UNL     1     155.225 165.183 188.222  0.00  0.00    +0.052 HD
ATOM    153  H   UNL     1     156.926 164.773 188.621  0.00  0.00    +0.052 HD
ENDBRANCH 149 150
ENDBRANCH   4 149
TORSDOF 33
ENDMDL
MODEL 4
REMARK VINA RESULT:      -5.4      3.947      8.072
REMARK  Name = Sphinxolide B_conf2
REMARK  33 active torsions:
REMARK  status: ('A' for Active; 'I' for Inactive)
REMARK    1  A    between atoms: C_1  and  C_2
REMARK    2  A    between atoms: C_5  and  O_67
REMARK    3  A    between atoms: C_7  and  O_65
REMARK    4  A    between atoms: C_8  and  C_64
REMARK    5  A    between atoms: C_10  and  O_63
REMARK    6  A    between atoms: C_17  and  O_61
REMARK    7  A    between atoms: C_19  and  C_60
REMARK    8  A    between atoms: C_26  and  C_37
REMARK    9  A    between atoms: C_27  and  C_36
REMARK   10  A    between atoms: C_30  and  O_34
REMARK   11  A    between atoms: C_32  and  O_33
REMARK   12  A    between atoms: O_34  and  C_35
REMARK   13  A    between atoms: C_37  and  C_38
REMARK   14  A    between atoms: C_37  and  C_39
REMARK   15  A    between atoms: C_39  and  C_40
REMARK   16  A    between atoms: C_39  and  O_58
REMARK   17  A    between atoms: C_40  and  C_41
REMARK   18  A    between atoms: C_40  and  C_42
REMARK   19  A    between atoms: C_42  and  C_43
REMARK   20  A    between atoms: C_43  and  C_44
REMARK   21  A    between atoms: C_44  and  C_46
REMARK   22  A    between atoms: C_46  and  C_47
REMARK   23  A    between atoms: C_46  and  C_48
REMARK   24  A    between atoms: C_48  and  C_49
REMARK   25  A    between atoms: C_48  and  O_56
REMARK   26  A    between atoms: C_49  and  C_50
REMARK   27  A    between atoms: C_51  and  N_52
REMARK   28  A    between atoms: N_52  and  C_53
REMARK   29  A    between atoms: O_56  and  C_57
REMARK   30  A    between atoms: O_58  and  C_59
REMARK   31  A    between atoms: O_61  and  C_62
REMARK   32  A    between atoms: O_65  and  C_66
REMARK   33  A    between atoms: O_67  and  C_68
REMARK                            x       y       z     vdW  Elec       q    Type
REMARK                         _______ _______ _______ _____ _____    ______ ____
ROOT
ATOM      1  C   UNL     1     136.449 170.923 190.178  0.00  0.00    +0.000 C 
ATOM      2  C   UNL     1     135.342 171.584 190.988  0.00  0.00    -0.080 C 
ATOM      3  C   UNL     1     134.730 171.036 192.054  0.00  0.00    -0.059 C 
ATOM      4  C   UNL     1     133.553 171.644 192.767  0.00  0.00    +0.079 C 
ATOM      5  C   UNL     1     133.805 171.767 194.277  0.00  0.00    +0.004 C 
ATOM      6  C   UNL     1     134.904 172.761 194.709  0.00  0.00    +0.067 C 
ATOM      7  C   UNL     1     134.699 174.220 194.208  0.00  0.00    +0.022 C 
ATOM      8  C   UNL     1     135.635 175.279 194.885  0.00  0.00    +0.138 C 
ATOM      9  C   UNL     1     137.167 175.048 194.922  0.00  0.00    +0.114 C 
ATOM     10  C   UNL     1     137.793 175.359 193.592  0.00  0.00    -0.029 C 
ATOM     11  C   UNL     1     137.161 176.189 192.745  0.00  0.00    +0.024 C 
ATOM     12  C   UNL     1     135.907 176.882 193.091  0.00  0.00    +0.332 C 
ATOM     13  O   UNL     1     135.422 177.712 192.334  0.00  0.00    -0.246 OA
ATOM     14  O   UNL     1     135.363 176.579 194.293  0.00  0.00    -0.455 OA
ATOM     15  C   UNL     1     139.192 174.855 193.288  0.00  0.00    -0.002 C 
ATOM     16  C   UNL     1     140.253 175.217 194.358  0.00  0.00    +0.066 C 
ATOM     17  C   UNL     1     141.705 174.951 193.866  0.00  0.00    -0.005 C 
ATOM     18  C   UNL     1     142.117 175.625 192.561  0.00  0.00    -0.070 C 
ATOM     19  C   UNL     1     142.658 175.024 191.483  0.00  0.00    -0.062 C 
ATOM     20  C   UNL     1     143.046 173.649 191.273  0.00  0.00    -0.055 C 
ATOM     21  C   UNL     1     142.322 172.555 191.544  0.00  0.00    +0.023 C 
ATOM     22  C   UNL     1     142.772 171.186 191.219  0.00  0.00    +0.332 C 
ATOM     23  O   UNL     1     142.297 170.197 191.755  0.00  0.00    -0.246 OA
ATOM     24  O   UNL     1     143.699 171.201 190.230  0.00  0.00    -0.457 OA
ATOM     25  C   UNL     1     143.908 169.970 189.504  0.00  0.00    +0.114 C 
ATOM     26  C   UNL     1     143.138 170.121 188.143  0.00  0.00    +0.012 C 
ATOM     27  C   UNL     1     141.648 170.377 188.289  0.00  0.00    -0.079 C 
ATOM     28  C   UNL     1     140.779 169.621 188.984  0.00  0.00    -0.059 C 
ATOM     29  C   UNL     1     139.286 169.853 189.128  0.00  0.00    +0.079 C 
ATOM     30  C   UNL     1     139.020 170.541 190.478  0.00  0.00    +0.004 C 
ATOM     31  C   UNL     1     137.604 170.376 191.060  0.00  0.00    +0.064 C 
ATOM     32  H   UNL     1     136.859 171.719 189.543  0.00  0.00    +0.037 HD
ATOM     33  H   UNL     1     134.994 172.543 190.606  0.00  0.00    +0.057 HD
ATOM     34  H   UNL     1     135.040 170.051 192.400  0.00  0.00    +0.059 HD
ATOM     35  H   UNL     1     133.293 172.621 192.344  0.00  0.00    +0.064 HD
ATOM     36  H   UNL     1     132.865 172.005 194.793  0.00  0.00    +0.032 HD
ATOM     37  H   UNL     1     134.049 170.766 194.658  0.00  0.00    +0.032 HD
ATOM     38  H   UNL     1     135.858 172.394 194.315  0.00  0.00    +0.060 HD
ATOM     39  H   UNL     1     134.872 174.240 193.126  0.00  0.00    +0.036 HD
ATOM     40  H   UNL     1     135.315 175.369 195.933  0.00  0.00    +0.077 HD
ATOM     41  H   UNL     1     137.593 175.751 195.649  0.00  0.00    +0.068 HD
ATOM     42  H   UNL     1     137.590 176.480 191.792  0.00  0.00    +0.069 HD
ATOM     43  H   UNL     1     139.496 175.263 192.317  0.00  0.00    +0.034 HD
ATOM     44  H   UNL     1     139.164 173.764 193.157  0.00  0.00    +0.034 HD
ATOM     45  H   UNL     1     140.076 174.585 195.237  0.00  0.00    +0.060 HD
ATOM     46  H   UNL     1     141.840 173.867 193.808  0.00  0.00    +0.034 HD
ATOM     47  H   UNL     1     142.412 175.291 194.631  0.00  0.00    +0.034 HD
ATOM     48  H   UNL     1     142.937 175.653 190.635  0.00  0.00    +0.062 HD
ATOM     49  H   UNL     1     144.008 173.547 190.770  0.00  0.00    +0.062 HD
ATOM     50  H   UNL     1     141.350 172.604 192.018  0.00  0.00    +0.069 HD
ATOM     51  H   UNL     1     143.491 169.112 190.044  0.00  0.00    +0.074 HD
ATOM     52  H   UNL     1     143.527 171.016 187.644  0.00  0.00    +0.038 HD
ATOM     53  H   UNL     1     141.275 171.258 187.768  0.00  0.00    +0.057 HD
ATOM     54  H   UNL     1     141.146 168.751 189.523  0.00  0.00    +0.059 HD
ATOM     55  H   UNL     1     138.780 168.881 189.089  0.00  0.00    +0.064 HD
ATOM     56  H   UNL     1     139.231 171.615 190.388  0.00  0.00    +0.032 HD
ATOM     57  H   UNL     1     139.710 170.134 191.227  0.00  0.00    +0.032 HD
ATOM     58  H   UNL     1     137.608 170.930 192.010  0.00  0.00    +0.060 HD
ENDROOT
BRANCH   1  59
ATOM     59  C   UNL     1     135.795 169.864 189.280  0.00  0.00    -0.057 C 
ATOM     60  H   UNL     1     134.738 169.716 189.528  0.00  0.00    +0.024 HD
ATOM     61  H   UNL     1     135.845 170.167 188.227  0.00  0.00    +0.024 HD
ATOM     62  H   UNL     1     136.283 168.894 189.366  0.00  0.00    +0.024 HD
ENDBRANCH   1  59
BRANCH  26  63
ATOM     63  C   UNL     1     143.339 168.935 187.191  0.00  0.00    -0.056 C 
ATOM     64  H   UNL     1     143.142 167.982 187.695  0.00  0.00    +0.024 HD
ATOM     65  H   UNL     1     144.362 168.905 186.802  0.00  0.00    +0.024 HD
ATOM     66  H   UNL     1     142.651 168.987 186.341  0.00  0.00    +0.024 HD
ENDBRANCH  26  63
BRANCH  18  67
ATOM     67  C   UNL     1     141.952 177.131 192.533  0.00  0.00    -0.043 C 
ATOM     68  H   UNL     1     142.266 177.599 193.472  0.00  0.00    +0.027 HD
ATOM     69  H   UNL     1     142.554 177.576 191.737  0.00  0.00    +0.027 HD
ATOM     70  H   UNL     1     140.900 177.395 192.380  0.00  0.00    +0.027 HD
ENDBRANCH  18  67
BRANCH   7  71
ATOM     71  C   UNL     1     133.241 174.692 194.428  0.00  0.00    -0.057 C 
ATOM     72  H   UNL     1     132.715 174.838 193.479  0.00  0.00    +0.023 HD
ATOM     73  H   UNL     1     133.214 175.642 194.975  0.00  0.00    +0.023 HD
ATOM     74  H   UNL     1     132.650 173.963 194.988  0.00  0.00    +0.023 HD
ENDBRANCH   7  71
BRANCH  31  75
ATOM     75  O   UNL     1     137.394 169.002 191.400  0.00  0.00    -0.391 OA
ATOM     76  H   UNL     1     136.664 168.970 192.043  0.00  0.00    +0.210 HD
ENDBRANCH  31  75
BRANCH  25  77
ATOM     77  C   UNL     1     145.437 169.726 189.330  0.00  0.00    +0.020 C 
ATOM     78  H   UNL     1     145.549 169.217 188.369  0.00  0.00    +0.036 HD
BRANCH  77  79
ATOM     79  C   UNL     1     146.253 171.015 189.174  0.00  0.00    -0.057 C 
ATOM     80  H   UNL     1     146.294 171.331 188.125  0.00  0.00    +0.023 HD
ATOM     81  H   UNL     1     147.288 170.857 189.496  0.00  0.00    +0.023 HD
ATOM     82  H   UNL     1     145.841 171.850 189.745  0.00  0.00    +0.023 HD
ENDBRANCH  77  79
BRANCH  77  83
ATOM     83  C   UNL     1     146.035 168.730 190.385  0.00  0.00    +0.067 C 
ATOM     84  H   UNL     1     145.522 168.861 191.347  0.00  0.00    +0.060 HD
BRANCH  83  85
ATOM     85  C   UNL     1     147.574 168.758 190.641  0.00  0.00    -0.017 C 
ATOM     86  H   UNL     1     147.952 169.750 190.359  0.00  0.00    +0.032 HD
BRANCH  85  87
ATOM     87  C   UNL     1     147.957 168.515 192.102  0.00  0.00    -0.060 C 
ATOM     88  H   UNL     1     148.137 167.456 192.292  0.00  0.00    +0.023 HD
ATOM     89  H   UNL     1     148.853 169.079 192.382  0.00  0.00    +0.023 HD
ATOM     90  H   UNL     1     147.148 168.815 192.777  0.00  0.00    +0.023 HD
ENDBRANCH  85  87
BRANCH  85  91
ATOM     91  C   UNL     1     148.361 167.773 189.731  0.00  0.00    -0.041 C 
ATOM     92  H   UNL     1     148.954 168.364 189.022  0.00  0.00    +0.027 HD
ATOM     93  H   UNL     1     147.660 167.203 189.106  0.00  0.00    +0.027 HD
BRANCH  91  94
ATOM     94  C   UNL     1     149.275 166.792 190.470  0.00  0.00    +0.007 C 
ATOM     95  H   UNL     1     149.448 167.137 191.495  0.00  0.00    +0.034 HD
ATOM     96  H   UNL     1     148.824 165.795 190.517  0.00  0.00    +0.034 HD
BRANCH  94  97
ATOM     97  C   UNL     1     150.632 166.659 189.793  0.00  0.00    +0.139 C 
ATOM     98  O   UNL     1     150.783 166.027 188.747  0.00  0.00    -0.297 OA
BRANCH  97  99
ATOM     99  C   UNL     1     151.793 167.396 190.465  0.00  0.00    +0.041 C 
ATOM    100  H   UNL     1     151.864 168.382 189.986  0.00  0.00    +0.040 HD
BRANCH  99 101
ATOM    101  C   UNL     1     153.058 166.600 190.161  0.00  0.00    -0.053 C 
ATOM    102  H   UNL     1     153.683 167.119 189.429  0.00  0.00    +0.024 HD
ATOM    103  H   UNL     1     152.821 165.618 189.736  0.00  0.00    +0.024 HD
ATOM    104  H   UNL     1     153.645 166.421 191.070  0.00  0.00    +0.024 HD
ENDBRANCH  99 101
BRANCH  99 105
ATOM    105  C   UNL     1     151.479 167.598 191.962  0.00  0.00    +0.071 C 
ATOM    106  H   UNL     1     150.393 167.673 192.111  0.00  0.00    +0.061 HD
BRANCH 105 107
ATOM    107  C   UNL     1     152.057 166.500 192.886  0.00  0.00    -0.006 C 
ATOM    108  H   UNL     1     152.627 165.777 192.287  0.00  0.00    +0.033 HD
ATOM    109  H   UNL     1     152.793 166.944 193.567  0.00  0.00    +0.033 HD
BRANCH 107 110
ATOM    110  C   UNL     1     151.022 165.820 193.745  0.00  0.00    -0.067 C 
ATOM    111  C   UNL     1     149.938 166.445 194.224  0.00  0.00    -0.005 C 
ATOM    112  H   UNL     1     151.205 164.770 193.955  0.00  0.00    +0.059 HD
ATOM    113  H   UNL     1     149.781 167.500 193.987  0.00  0.00    +0.078 HD
BRANCH 111 114
ATOM    114  N   UNL     1     148.960 165.881 195.028  0.00  0.00    -0.284 N 
ATOM    115  C   UNL     1     149.194 165.731 196.394  0.00  0.00    +0.206 C 
ATOM    116  O   UNL     1     150.214 166.037 197.002  0.00  0.00    -0.279 OA
ATOM    117  H   UNL     1     148.339 165.277 196.924  0.00  0.00    +0.126 HD
BRANCH 114 118
ATOM    118  C   UNL     1     147.690 165.434 194.478  0.00  0.00    +0.007 C 
ATOM    119  H   UNL     1     147.099 166.306 194.178  0.00  0.00    +0.043 HD
ATOM    120  H   UNL     1     147.874 164.786 193.617  0.00  0.00    +0.043 HD
ATOM    121  H   UNL     1     147.117 164.867 195.219  0.00  0.00    +0.043 HD
ENDBRANCH 114 118
ENDBRANCH 111 114
ENDBRANCH 107 110
ENDBRANCH 105 107
BRANCH 105 122
ATOM    122  O   UNL     1     152.099 168.850 192.334  0.00  0.00    -0.379 OA
BRANCH 122 123
ATOM    123  C   UNL     1     151.373 169.981 191.863  0.00  0.00    +0.037 C 
ATOM    124  H   UNL     1     150.310 169.750 191.761  0.00  0.00    +0.052 HD
ATOM    125  H   UNL     1     151.779 170.321 190.905  0.00  0.00    +0.052 HD
ATOM    126  H   UNL     1     151.486 170.787 192.595  0.00  0.00    +0.052 HD
ENDBRANCH 122 123
ENDBRANCH 105 122
ENDBRANCH  99 105
ENDBRANCH  97  99
ENDBRANCH  94  97
ENDBRANCH  91  94
ENDBRANCH  85  91
ENDBRANCH  83  85
BRANCH  83 127
ATOM    127  O   UNL     1     145.755 167.394 189.897  0.00  0.00    -0.379 OA
BRANCH 127 128
ATOM    128  C   UNL     1     144.976 166.609 190.793  0.00  0.00    +0.037 C 
ATOM    129  H   UNL     1     145.601 165.789 191.156  0.00  0.00    +0.052 HD
ATOM    130  H   UNL     1     144.105 166.183 190.290  0.00  0.00    +0.052 HD
ATOM    131  H   UNL     1     144.655 167.209 191.649  0.00  0.00    +0.052 HD
ENDBRANCH 127 128
ENDBRANCH  83 127
ENDBRANCH  77  83
ENDBRANCH  25  77
BRANCH   9 132
ATOM    132  O   UNL     1     137.540 173.747 195.339  0.00  0.00    -0.384 OA
ATOM    133  H   UNL     1     137.497 173.182 194.541  0.00  0.00    +0.210 HD
ENDBRANCH   9 132
BRANCH  29 134
ATOM    134  O   UNL     1     138.792 170.705 188.085  0.00  0.00    -0.376 OA
BRANCH 134 135
ATOM    135  C   UNL     1     138.417 169.996 186.909  0.00  0.00    +0.037 C 
ATOM    136  H   UNL     1     138.451 170.641 186.028  0.00  0.00    +0.052 HD
ATOM    137  H   UNL     1     139.058 169.124 186.754  0.00  0.00    +0.052 HD
ATOM    138  H   UNL     1     137.387 169.648 187.039  0.00  0.00    +0.052 HD
ENDBRANCH 134 135
ENDBRANCH  29 134
BRANCH   6 139
ATOM    139  O   UNL     1     135.018 172.830 196.146  0.00  0.00    -0.379 OA
BRANCH 139 140
ATOM    140  C   UNL     1     133.978 172.172 196.863  0.00  0.00    +0.037 C 
ATOM    141  H   UNL     1     134.370 171.893 197.846  0.00  0.00    +0.052 HD
ATOM    142  H   UNL     1     133.130 172.844 197.019  0.00  0.00    +0.052 HD
ATOM    143  H   UNL     1     133.659 171.262 196.344  0.00  0.00    +0.052 HD
ENDBRANCH 139 140
ENDBRANCH   6 139
BRANCH  16 144
ATOM    144  O   UNL     1     140.091 176.591 194.748  0.00  0.00    -0.379 OA
BRANCH 144 145
ATOM    145  C   UNL     1     140.237 176.800 196.147  0.00  0.00    +0.037 C 
ATOM    146  H   UNL     1     141.184 176.352 196.463  0.00  0.00    +0.052 HD
ATOM    147  H   UNL     1     140.272 177.871 196.367  0.00  0.00    +0.052 HD
ATOM    148  H   UNL     1     139.430 176.328 196.711  0.00  0.00    +0.052 HD
ENDBRANCH 144 145
ENDBRANCH  16 144
BRANCH   4 149
ATOM    149  O   UNL     1     132.429 170.761 192.624  0.00  0.00    -0.376 OA
BRANCH 149 150
ATOM    150  C   UNL     1     131.907 170.307 193.869  0.00  0.00    +0.037 C 
ATOM    151  H   UNL     1     131.453 171.162 194.378  0.00  0.00    +0.052 HD
ATOM    152  H   UNL     1     132.705 169.917 194.505  0.00  0.00    +0.052 HD
ATOM    153  H   UNL     1     131.137 169.547 193.715  0.00  0.00    +0.052 HD
ENDBRANCH 149 150
ENDBRANCH   4 149
TORSDOF 33
ENDMDL
MODEL 5
REMARK VINA RESULT:      -5.4      3.740     11.984
REMARK  Name = Sphinxolide B_conf2
REMARK  33 active torsions:
REMARK  status: ('A' for Active; 'I' for Inactive)
REMARK    1  A    between atoms: C_1  and  C_2
REMARK    2  A    between atoms: C_5  and  O_67
REMARK    3  A    between atoms: C_7  and  O_65
REMARK    4  A    between atoms: C_8  and  C_64
REMARK    5  A    between atoms: C_10  and  O_63
REMARK    6  A    between atoms: C_17  and  O_61
REMARK    7  A    between atoms: C_19  and  C_60
REMARK    8  A    between atoms: C_26  and  C_37
REMARK    9  A    between atoms: C_27  and  C_36
REMARK   10  A    between atoms: C_30  and  O_34
REMARK   11  A    between atoms: C_32  and  O_33
REMARK   12  A    between atoms: O_34  and  C_35
REMARK   13  A    between atoms: C_37  and  C_38
REMARK   14  A    between atoms: C_37  and  C_39
REMARK   15  A    between atoms: C_39  and  C_40
REMARK   16  A    between atoms: C_39  and  O_58
REMARK   17  A    between atoms: C_40  and  C_41
REMARK   18  A    between atoms: C_40  and  C_42
REMARK   19  A    between atoms: C_42  and  C_43
REMARK   20  A    between atoms: C_43  and  C_44
REMARK   21  A    between atoms: C_44  and  C_46
REMARK   22  A    between atoms: C_46  and  C_47
REMARK   23  A    between atoms: C_46  and  C_48
REMARK   24  A    between atoms: C_48  and  C_49
REMARK   25  A    between atoms: C_48  and  O_56
REMARK   26  A    between atoms: C_49  and  C_50
REMARK   27  A    between atoms: C_51  and  N_52
REMARK   28  A    between atoms: N_52  and  C_53
REMARK   29  A    between atoms: O_56  and  C_57
REMARK   30  A    between atoms: O_58  and  C_59
REMARK   31  A    between atoms: O_61  and  C_62
REMARK   32  A    between atoms: O_65  and  C_66
REMARK   33  A    between atoms: O_67  and  C_68
REMARK                            x       y       z     vdW  Elec       q    Type
REMARK                         _______ _______ _______ _____ _____    ______ ____
ROOT
ATOM      1  C   UNL     1     149.297 164.441 185.531  0.00  0.00    +0.000 C 
ATOM      2  C   UNL     1     150.786 164.206 185.310  0.00  0.00    -0.080 C 
ATOM      3  C   UNL     1     151.595 165.000 184.585  0.00  0.00    -0.059 C 
ATOM      4  C   UNL     1     153.033 164.691 184.271  0.00  0.00    +0.079 C 
ATOM      5  C   UNL     1     153.962 165.849 184.662  0.00  0.00    +0.004 C 
ATOM      6  C   UNL     1     154.092 166.142 186.172  0.00  0.00    +0.067 C 
ATOM      7  C   UNL     1     154.557 164.934 187.035  0.00  0.00    +0.022 C 
ATOM      8  C   UNL     1     154.975 165.302 188.500  0.00  0.00    +0.138 C 
ATOM      9  C   UNL     1     154.015 166.125 189.396  0.00  0.00    +0.114 C 
ATOM     10  C   UNL     1     152.909 165.266 189.937  0.00  0.00    -0.029 C 
ATOM     11  C   UNL     1     153.090 163.937 190.024  0.00  0.00    +0.024 C 
ATOM     12  C   UNL     1     154.365 163.280 189.685  0.00  0.00    +0.332 C 
ATOM     13  O   UNL     1     154.524 162.083 189.881  0.00  0.00    -0.246 OA
ATOM     14  O   UNL     1     155.343 164.078 189.195  0.00  0.00    -0.455 OA
ATOM     15  C   UNL     1     151.668 165.920 190.516  0.00  0.00    -0.002 C 
ATOM     16  C   UNL     1     151.951 166.990 191.601  0.00  0.00    +0.066 C 
ATOM     17  C   UNL     1     150.664 167.408 192.370  0.00  0.00    -0.005 C 
ATOM     18  C   UNL     1     149.868 166.285 193.027  0.00  0.00    -0.070 C 
ATOM     19  C   UNL     1     148.552 166.041 192.877  0.00  0.00    -0.062 C 
ATOM     20  C   UNL     1     147.542 166.764 192.139  0.00  0.00    -0.055 C 
ATOM     21  C   UNL     1     147.625 167.205 190.877  0.00  0.00    +0.023 C 
ATOM     22  C   UNL     1     146.506 167.869 190.177  0.00  0.00    +0.332 C 
ATOM     23  O   UNL     1     146.673 168.561 189.184  0.00  0.00    -0.246 OA
ATOM     24  O   UNL     1     145.317 167.544 190.743  0.00  0.00    -0.457 OA
ATOM     25  C   UNL     1     144.132 167.736 189.941  0.00  0.00    +0.114 C 
ATOM     26  C   UNL     1     143.727 166.318 189.401  0.00  0.00    +0.012 C 
ATOM     27  C   UNL     1     144.798 165.634 188.569  0.00  0.00    -0.079 C 
ATOM     28  C   UNL     1     145.407 166.148 187.484  0.00  0.00    -0.059 C 
ATOM     29  C   UNL     1     146.466 165.474 186.632  0.00  0.00    +0.079 C 
ATOM     30  C   UNL     1     147.850 165.995 187.059  0.00  0.00    +0.004 C 
ATOM     31  C   UNL     1     148.973 165.881 186.012  0.00  0.00    +0.064 C 
ATOM     32  H   UNL     1     149.010 163.746 186.331  0.00  0.00    +0.037 HD
ATOM     33  H   UNL     1     151.178 163.279 185.725  0.00  0.00    +0.057 HD
ATOM     34  H   UNL     1     151.188 165.898 184.122  0.00  0.00    +0.059 HD
ATOM     35  H   UNL     1     153.357 163.764 184.756  0.00  0.00    +0.064 HD
ATOM     36  H   UNL     1     154.959 165.690 184.228  0.00  0.00    +0.032 HD
ATOM     37  H   UNL     1     153.609 166.752 184.145  0.00  0.00    +0.032 HD
ATOM     38  H   UNL     1     153.109 166.464 186.534  0.00  0.00    +0.060 HD
ATOM     39  H   UNL     1     153.740 164.205 187.077  0.00  0.00    +0.036 HD
ATOM     40  H   UNL     1     155.905 165.884 188.434  0.00  0.00    +0.077 HD
ATOM     41  H   UNL     1     154.591 166.488 190.258  0.00  0.00    +0.068 HD
ATOM     42  H   UNL     1     152.341 163.277 190.447  0.00  0.00    +0.069 HD
ATOM     43  H   UNL     1     151.033 165.132 190.936  0.00  0.00    +0.034 HD
ATOM     44  H   UNL     1     151.083 166.372 189.702  0.00  0.00    +0.034 HD
ATOM     45  H   UNL     1     152.346 167.883 191.099  0.00  0.00    +0.060 HD
ATOM     46  H   UNL     1     150.039 167.982 191.680  0.00  0.00    +0.034 HD
ATOM     47  H   UNL     1     150.934 168.109 193.168  0.00  0.00    +0.034 HD
ATOM     48  H   UNL     1     148.117 165.218 193.448  0.00  0.00    +0.062 HD
ATOM     49  H   UNL     1     146.606 166.873 192.687  0.00  0.00    +0.062 HD
ATOM     50  H   UNL     1     148.522 167.098 190.281  0.00  0.00    +0.069 HD
ATOM     51  H   UNL     1     144.330 168.390 189.084  0.00  0.00    +0.074 HD
ATOM     52  H   UNL     1     143.589 165.663 190.270  0.00  0.00    +0.038 HD
ATOM     53  H   UNL     1     145.074 164.633 188.898  0.00  0.00    +0.057 HD
ATOM     54  H   UNL     1     145.150 167.154 187.159  0.00  0.00    +0.059 HD
ATOM     55  H   UNL     1     146.273 165.721 185.581  0.00  0.00    +0.064 HD
ATOM     56  H   UNL     1     148.172 165.471 187.968  0.00  0.00    +0.032 HD
ATOM     57  H   UNL     1     147.768 167.060 187.308  0.00  0.00    +0.032 HD
ATOM     58  H   UNL     1     149.871 166.296 186.494  0.00  0.00    +0.060 HD
ENDROOT
BRANCH   1  59
ATOM     59  C   UNL     1     148.570 164.036 184.242  0.00  0.00    -0.057 C 
ATOM     60  H   UNL     1     148.714 162.974 184.009  0.00  0.00    +0.024 HD
ATOM     61  H   UNL     1     147.490 164.205 184.339  0.00  0.00    +0.024 HD
ATOM     62  H   UNL     1     148.915 164.603 183.379  0.00  0.00    +0.024 HD
ENDBRANCH   1  59
BRANCH  26  63
ATOM     63  C   UNL     1     142.415 166.316 188.606  0.00  0.00    -0.056 C 
ATOM     64  H   UNL     1     141.546 166.296 189.274  0.00  0.00    +0.024 HD
ATOM     65  H   UNL     1     142.351 165.445 187.946  0.00  0.00    +0.024 HD
ATOM     66  H   UNL     1     142.319 167.218 187.995  0.00  0.00    +0.024 HD
ENDBRANCH  26  63
BRANCH  18  67
ATOM     67  C   UNL     1     150.650 165.418 193.991  0.00  0.00    -0.043 C 
ATOM     68  H   UNL     1     150.021 165.023 194.796  0.00  0.00    +0.027 HD
ATOM     69  H   UNL     1     151.090 164.559 193.478  0.00  0.00    +0.027 HD
ATOM     70  H   UNL     1     151.447 166.000 194.466  0.00  0.00    +0.027 HD
ENDBRANCH  18  67
BRANCH   7  71
ATOM     71  C   UNL     1     155.761 164.207 186.386  0.00  0.00    -0.057 C 
ATOM     72  H   UNL     1     156.652 164.256 187.019  0.00  0.00    +0.023 HD
ATOM     73  H   UNL     1     156.012 164.653 185.417  0.00  0.00    +0.023 HD
ATOM     74  H   UNL     1     155.564 163.144 186.227  0.00  0.00    +0.023 HD
ENDBRANCH   7  71
BRANCH  31  75
ATOM     75  O   UNL     1     148.676 166.744 184.909  0.00  0.00    -0.391 OA
ATOM     76  H   UNL     1     148.158 167.491 185.257  0.00  0.00    +0.210 HD
ENDBRANCH  31  75
BRANCH  25  77
ATOM     77  C   UNL     1     143.025 168.411 190.808  0.00  0.00    +0.020 C 
ATOM     78  H   UNL     1     142.077 167.994 190.455  0.00  0.00    +0.036 HD
BRANCH  77  79
ATOM     79  C   UNL     1     143.082 168.022 192.290  0.00  0.00    -0.057 C 
ATOM     80  H   UNL     1     142.531 167.093 192.476  0.00  0.00    +0.023 HD
ATOM     81  H   UNL     1     142.613 168.796 192.909  0.00  0.00    +0.023 HD
ATOM     82  H   UNL     1     144.102 167.869 192.650  0.00  0.00    +0.023 HD
ENDBRANCH  77  79
BRANCH  77  83
ATOM     83  C   UNL     1     142.901 169.956 190.568  0.00  0.00    +0.067 C 
ATOM     84  H   UNL     1     143.256 170.496 191.455  0.00  0.00    +0.060 HD
BRANCH  83  85
ATOM     85  C   UNL     1     141.507 170.532 190.167  0.00  0.00    -0.017 C 
ATOM     86  H   UNL     1     141.668 171.415 189.534  0.00  0.00    +0.032 HD
BRANCH  85  87
ATOM     87  C   UNL     1     140.642 169.549 189.376  0.00  0.00    -0.060 C 
ATOM     88  H   UNL     1     140.902 168.516 189.613  0.00  0.00    +0.023 HD
ATOM     89  H   UNL     1     139.577 169.698 189.578  0.00  0.00    +0.023 HD
ATOM     90  H   UNL     1     140.798 169.665 188.298  0.00  0.00    +0.023 HD
ENDBRANCH  85  87
BRANCH  85  91
ATOM     91  C   UNL     1     140.697 171.070 191.381  0.00  0.00    -0.041 C 
ATOM     92  H   UNL     1     141.306 170.935 192.283  0.00  0.00    +0.027 HD
ATOM     93  H   UNL     1     139.810 170.444 191.542  0.00  0.00    +0.027 HD
BRANCH  91  94
ATOM     94  C   UNL     1     140.258 172.533 191.274  0.00  0.00    +0.007 C 
ATOM     95  H   UNL     1     140.613 172.966 190.332  0.00  0.00    +0.034 HD
ATOM     96  H   UNL     1     139.166 172.617 191.298  0.00  0.00    +0.034 HD
BRANCH  94  97
ATOM     97  C   UNL     1     140.817 173.379 192.410  0.00  0.00    +0.139 C 
ATOM     98  O   UNL     1     140.457 173.227 193.578  0.00  0.00    -0.297 OA
BRANCH  97  99
ATOM     99  C   UNL     1     141.889 174.399 192.022  0.00  0.00    +0.041 C 
ATOM    100  H   UNL     1     141.561 175.371 192.415  0.00  0.00    +0.040 HD
BRANCH  99 101
ATOM    101  C   UNL     1     141.912 174.460 190.497  0.00  0.00    -0.053 C 
ATOM    102  H   UNL     1     141.617 175.449 190.138  0.00  0.00    +0.024 HD
ATOM    103  H   UNL     1     141.211 173.740 190.058  0.00  0.00    +0.024 HD
ATOM    104  H   UNL     1     142.906 174.218 190.104  0.00  0.00    +0.024 HD
ENDBRANCH  99 101
BRANCH  99 105
ATOM    105  C   UNL     1     143.226 174.025 192.692  0.00  0.00    +0.071 C 
ATOM    106  H   UNL     1     143.041 173.405 193.580  0.00  0.00    +0.061 HD
BRANCH 105 107
ATOM    107  C   UNL     1     144.226 173.306 191.755  0.00  0.00    -0.006 C 
ATOM    108  H   UNL     1     143.875 172.285 191.555  0.00  0.00    +0.033 HD
ATOM    109  H   UNL     1     144.231 173.800 190.775  0.00  0.00    +0.033 HD
BRANCH 107 110
ATOM    110  C   UNL     1     145.648 173.319 192.256  0.00  0.00    -0.067 C 
ATOM    111  C   UNL     1     146.622 172.566 191.726  0.00  0.00    -0.005 C 
ATOM    112  H   UNL     1     145.845 173.990 193.086  0.00  0.00    +0.059 HD
ATOM    113  H   UNL     1     146.389 171.906 190.887  0.00  0.00    +0.078 HD
BRANCH 111 114
ATOM    114  N   UNL     1     147.940 172.522 192.149  0.00  0.00    -0.284 N 
ATOM    115  C   UNL     1     148.509 171.301 192.505  0.00  0.00    +0.206 C 
ATOM    116  O   UNL     1     147.957 170.206 192.505  0.00  0.00    -0.279 OA
ATOM    117  H   UNL     1     149.564 171.398 192.817  0.00  0.00    +0.126 HD
BRANCH 114 118
ATOM    118  C   UNL     1     148.749 173.728 192.236  0.00  0.00    +0.007 C 
ATOM    119  H   UNL     1     148.208 174.561 191.775  0.00  0.00    +0.043 HD
ATOM    120  H   UNL     1     148.963 173.948 193.286  0.00  0.00    +0.043 HD
ATOM    121  H   UNL     1     149.703 173.602 191.712  0.00  0.00    +0.043 HD
ENDBRANCH 114 118
ENDBRANCH 111 114
ENDBRANCH 107 110
ENDBRANCH 105 107
BRANCH 105 122
ATOM    122  O   UNL     1     143.832 175.273 193.099  0.00  0.00    -0.379 OA
BRANCH 122 123
ATOM    123  C   UNL     1     143.082 175.941 194.109  0.00  0.00    +0.037 C 
ATOM    124  H   UNL     1     142.430 175.243 194.640  0.00  0.00    +0.052 HD
ATOM    125  H   UNL     1     142.489 176.749 193.669  0.00  0.00    +0.052 HD
ATOM    126  H   UNL     1     143.786 176.376 194.825  0.00  0.00    +0.052 HD
ENDBRANCH 122 123
ENDBRANCH 105 122
ENDBRANCH  99 105
ENDBRANCH  97  99
ENDBRANCH  94  97
ENDBRANCH  91  94
ENDBRANCH  85  91
ENDBRANCH  83  85
BRANCH  83 127
ATOM    127  O   UNL     1     143.777 170.275 189.458  0.00  0.00    -0.379 OA
BRANCH 127 128
ATOM    128  C   UNL     1     143.468 171.510 188.822  0.00  0.00    +0.037 C 
ATOM    129  H   UNL     1     144.386 171.902 188.379  0.00  0.00    +0.052 HD
ATOM    130  H   UNL     1     143.091 172.242 189.541  0.00  0.00    +0.052 HD
ATOM    131  H   UNL     1     142.733 171.359 188.026  0.00  0.00    +0.052 HD
ENDBRANCH 127 128
ENDBRANCH  83 127
ENDBRANCH  77  83
ENDBRANCH  25  77
BRANCH   9 132
ATOM    132  O   UNL     1     153.471 167.265 188.755  0.00  0.00    -0.384 OA
ATOM    133  H   UNL     1     153.523 167.089 187.794  0.00  0.00    +0.210 HD
ENDBRANCH   9 132
BRANCH  29 134
ATOM    134  O   UNL     1     146.448 164.051 186.813  0.00  0.00    -0.376 OA
BRANCH 134 135
ATOM    135  C   UNL     1     147.101 163.628 188.005  0.00  0.00    +0.037 C 
ATOM    136  H   UNL     1     146.382 163.279 188.751  0.00  0.00    +0.052 HD
ATOM    137  H   UNL     1     147.830 162.841 187.798  0.00  0.00    +0.052 HD
ATOM    138  H   UNL     1     147.633 164.490 188.422  0.00  0.00    +0.052 HD
ENDBRANCH 134 135
ENDBRANCH  29 134
BRANCH   6 139
ATOM    139  O   UNL     1     155.025 167.214 186.424  0.00  0.00    -0.379 OA
BRANCH 139 140
ATOM    140  C   UNL     1     155.755 167.654 185.283  0.00  0.00    +0.037 C 
ATOM    141  H   UNL     1     155.057 168.163 184.612  0.00  0.00    +0.052 HD
ATOM    142  H   UNL     1     156.527 168.374 185.571  0.00  0.00    +0.052 HD
ATOM    143  H   UNL     1     156.197 166.806 184.749  0.00  0.00    +0.052 HD
ENDBRANCH 139 140
ENDBRANCH   6 139
BRANCH  16 144
ATOM    144  O   UNL     1     152.951 166.500 192.508  0.00  0.00    -0.379 OA
BRANCH 144 145
ATOM    145  C   UNL     1     153.588 167.529 193.255  0.00  0.00    +0.037 C 
ATOM    146  H   UNL     1     154.390 167.077 193.846  0.00  0.00    +0.052 HD
ATOM    147  H   UNL     1     154.029 168.267 192.581  0.00  0.00    +0.052 HD
ATOM    148  H   UNL     1     152.891 168.017 193.941  0.00  0.00    +0.052 HD
ENDBRANCH 144 145
ENDBRANCH  16 144
BRANCH   4 149
ATOM    149  O   UNL     1     153.165 164.543 182.848  0.00  0.00    -0.376 OA
BRANCH 149 150
ATOM    150  C   UNL     1     154.031 165.506 182.259  0.00  0.00    +0.037 C 
ATOM    151  H   UNL     1     154.686 164.988 181.553  0.00  0.00    +0.052 HD
ATOM    152  H   UNL     1     154.658 165.981 183.018  0.00  0.00    +0.052 HD
ATOM    153  H   UNL     1     153.460 166.261 181.711  0.00  0.00    +0.052 HD
ENDBRANCH 149 150
ENDBRANCH   4 149
TORSDOF 33
ENDMDL
MODEL 6
REMARK VINA RESULT:      -5.4      4.025      8.169
REMARK  Name = Sphinxolide B_conf2
REMARK  33 active torsions:
REMARK  status: ('A' for Active; 'I' for Inactive)
REMARK    1  A    between atoms: C_1  and  C_2
REMARK    2  A    between atoms: C_5  and  O_67
REMARK    3  A    between atoms: C_7  and  O_65
REMARK    4  A    between atoms: C_8  and  C_64
REMARK    5  A    between atoms: C_10  and  O_63
REMARK    6  A    between atoms: C_17  and  O_61
REMARK    7  A    between atoms: C_19  and  C_60
REMARK    8  A    between atoms: C_26  and  C_37
REMARK    9  A    between atoms: C_27  and  C_36
REMARK   10  A    between atoms: C_30  and  O_34
REMARK   11  A    between atoms: C_32  and  O_33
REMARK   12  A    between atoms: O_34  and  C_35
REMARK   13  A    between atoms: C_37  and  C_38
REMARK   14  A    between atoms: C_37  and  C_39
REMARK   15  A    between atoms: C_39  and  C_40
REMARK   16  A    between atoms: C_39  and  O_58
REMARK   17  A    between atoms: C_40  and  C_41
REMARK   18  A    between atoms: C_40  and  C_42
REMARK   19  A    between atoms: C_42  and  C_43
REMARK   20  A    between atoms: C_43  and  C_44
REMARK   21  A    between atoms: C_44  and  C_46
REMARK   22  A    between atoms: C_46  and  C_47
REMARK   23  A    between atoms: C_46  and  C_48
REMARK   24  A    between atoms: C_48  and  C_49
REMARK   25  A    between atoms: C_48  and  O_56
REMARK   26  A    between atoms: C_49  and  C_50
REMARK   27  A    between atoms: C_51  and  N_52
REMARK   28  A    between atoms: N_52  and  C_53
REMARK   29  A    between atoms: O_56  and  C_57
REMARK   30  A    between atoms: O_58  and  C_59
REMARK   31  A    between atoms: O_61  and  C_62
REMARK   32  A    between atoms: O_65  and  C_66
REMARK   33  A    between atoms: O_67  and  C_68
REMARK                            x       y       z     vdW  Elec       q    Type
REMARK                         _______ _______ _______ _____ _____    ______ ____
ROOT
ATOM      1  C   UNL     1     136.382 170.833 190.103  0.00  0.00    +0.000 C 
ATOM      2  C   UNL     1     135.261 171.535 190.858  0.00  0.00    -0.080 C 
ATOM      3  C   UNL     1     134.594 171.020 191.907  0.00  0.00    -0.059 C 
ATOM      4  C   UNL     1     133.407 171.669 192.564  0.00  0.00    +0.079 C 
ATOM      5  C   UNL     1     133.602 171.811 194.080  0.00  0.00    +0.004 C 
ATOM      6  C   UNL     1     134.708 172.785 194.539  0.00  0.00    +0.067 C 
ATOM      7  C   UNL     1     134.559 174.239 194.007  0.00  0.00    +0.022 C 
ATOM      8  C   UNL     1     135.494 175.286 194.704  0.00  0.00    +0.138 C 
ATOM      9  C   UNL     1     137.017 175.020 194.804  0.00  0.00    +0.114 C 
ATOM     10  C   UNL     1     137.702 175.292 193.496  0.00  0.00    -0.029 C 
ATOM     11  C   UNL     1     137.125 176.123 192.611  0.00  0.00    +0.024 C 
ATOM     12  C   UNL     1     135.876 176.852 192.896  0.00  0.00    +0.332 C 
ATOM     13  O   UNL     1     135.441 177.681 192.108  0.00  0.00    -0.246 OA
ATOM     14  O   UNL     1     135.278 176.583 194.081  0.00  0.00    -0.455 OA
ATOM     15  C   UNL     1     139.099 174.749 193.255  0.00  0.00    -0.002 C 
ATOM     16  C   UNL     1     140.126 175.104 194.360  0.00  0.00    +0.066 C 
ATOM     17  C   UNL     1     141.589 174.794 193.929  0.00  0.00    -0.005 C 
ATOM     18  C   UNL     1     142.068 175.436 192.631  0.00  0.00    -0.070 C 
ATOM     19  C   UNL     1     142.635 174.804 191.586  0.00  0.00    -0.062 C 
ATOM     20  C   UNL     1     142.997 173.416 191.412  0.00  0.00    -0.055 C 
ATOM     21  C   UNL     1     142.236 172.345 191.672  0.00  0.00    +0.023 C 
ATOM     22  C   UNL     1     142.664 170.960 191.388  0.00  0.00    +0.332 C 
ATOM     23  O   UNL     1     142.144 169.991 191.920  0.00  0.00    -0.246 OA
ATOM     24  O   UNL     1     143.629 170.935 190.435  0.00  0.00    -0.457 OA
ATOM     25  C   UNL     1     143.835 169.688 189.739  0.00  0.00    +0.114 C 
ATOM     26  C   UNL     1     143.123 169.834 188.346  0.00  0.00    +0.012 C 
ATOM     27  C   UNL     1     141.635 170.129 188.429  0.00  0.00    -0.079 C 
ATOM     28  C   UNL     1     140.721 169.406 189.101  0.00  0.00    -0.059 C 
ATOM     29  C   UNL     1     139.230 169.676 189.182  0.00  0.00    +0.079 C 
ATOM     30  C   UNL     1     138.929 170.394 190.510  0.00  0.00    +0.004 C 
ATOM     31  C   UNL     1     137.487 170.273 191.038  0.00  0.00    +0.064 C 
ATOM     32  H   UNL     1     136.836 171.608 189.472  0.00  0.00    +0.037 HD
ATOM     33  H   UNL     1     134.952 172.495 190.448  0.00  0.00    +0.057 HD
ATOM     34  H   UNL     1     134.866 170.033 192.281  0.00  0.00    +0.059 HD
ATOM     35  H   UNL     1     133.187 172.644 192.116  0.00  0.00    +0.064 HD
ATOM     36  H   UNL     1     132.649 172.080 194.555  0.00  0.00    +0.032 HD
ATOM     37  H   UNL     1     133.806 170.811 194.487  0.00  0.00    +0.032 HD
ATOM     38  H   UNL     1     135.667 172.388 194.189  0.00  0.00    +0.060 HD
ATOM     39  H   UNL     1     134.775 174.237 192.932  0.00  0.00    +0.036 HD
ATOM     40  H   UNL     1     135.136 175.403 195.737  0.00  0.00    +0.077 HD
ATOM     41  H   UNL     1     137.432 175.724 195.537  0.00  0.00    +0.068 HD
ATOM     42  H   UNL     1     137.597 176.387 191.671  0.00  0.00    +0.069 HD
ATOM     43  H   UNL     1     139.451 175.134 192.291  0.00  0.00    +0.034 HD
ATOM     44  H   UNL     1     139.049 173.658 193.140  0.00  0.00    +0.034 HD
ATOM     45  H   UNL     1     139.899 174.491 195.241  0.00  0.00    +0.060 HD
ATOM     46  H   UNL     1     141.699 173.706 193.895  0.00  0.00    +0.034 HD
ATOM     47  H   UNL     1     142.274 175.129 194.716  0.00  0.00    +0.034 HD
ATOM     48  H   UNL     1     142.963 175.411 190.739  0.00  0.00    +0.062 HD
ATOM     49  H   UNL     1     143.975 173.282 190.950  0.00  0.00    +0.062 HD
ATOM     50  H   UNL     1     141.247 172.425 192.107  0.00  0.00    +0.069 HD
ATOM     51  H   UNL     1     143.377 168.849 190.275  0.00  0.00    +0.074 HD
ATOM     52  H   UNL     1     143.554 170.711 187.848  0.00  0.00    +0.038 HD
ATOM     53  H   UNL     1     141.305 171.009 187.880  0.00  0.00    +0.057 HD
ATOM     54  H   UNL     1     141.045 168.536 189.668  0.00  0.00    +0.059 HD
ATOM     55  H   UNL     1     138.701 168.717 189.139  0.00  0.00    +0.064 HD
ATOM     56  H   UNL     1     139.170 171.460 190.411  0.00  0.00    +0.032 HD
ATOM     57  H   UNL     1     139.579 169.983 191.292  0.00  0.00    +0.032 HD
ATOM     58  H   UNL     1     137.468 170.843 191.979  0.00  0.00    +0.060 HD
ENDROOT
BRANCH   1  59
ATOM     59  C   UNL     1     135.737 169.776 189.197  0.00  0.00    -0.057 C 
ATOM     60  H   UNL     1     136.481 169.260 188.578  0.00  0.00    +0.024 HD
ATOM     61  H   UNL     1     135.227 169.012 189.798  0.00  0.00    +0.024 HD
ATOM     62  H   UNL     1     135.001 170.207 188.520  0.00  0.00    +0.024 HD
ENDBRANCH   1  59
BRANCH  26  63
ATOM     63  C   UNL     1     143.331 168.628 187.421  0.00  0.00    -0.056 C 
ATOM     64  H   UNL     1     142.439 168.434 186.814  0.00  0.00    +0.024 HD
ATOM     65  H   UNL     1     143.551 167.721 187.993  0.00  0.00    +0.024 HD
ATOM     66  H   UNL     1     144.155 168.800 186.722  0.00  0.00    +0.024 HD
ENDBRANCH  26  63
BRANCH  18  67
ATOM     67  C   UNL     1     141.942 176.944 192.572  0.00  0.00    -0.043 C 
ATOM     68  H   UNL     1     140.897 177.272 192.561  0.00  0.00    +0.027 HD
ATOM     69  H   UNL     1     142.415 177.411 193.440  0.00  0.00    +0.027 HD
ATOM     70  H   UNL     1     142.407 177.329 191.659  0.00  0.00    +0.027 HD
ENDBRANCH  18  67
BRANCH   7  71
ATOM     71  C   UNL     1     133.106 174.751 194.162  0.00  0.00    -0.057 C 
ATOM     72  H   UNL     1     132.847 174.924 195.211  0.00  0.00    +0.023 HD
ATOM     73  H   UNL     1     132.390 174.028 193.755  0.00  0.00    +0.023 HD
ATOM     74  H   UNL     1     132.947 175.705 193.653  0.00  0.00    +0.023 HD
ENDBRANCH   7  71
BRANCH  31  75
ATOM     75  O   UNL     1     137.230 168.910 191.391  0.00  0.00    -0.391 OA
ATOM     76  H   UNL     1     137.246 168.390 190.569  0.00  0.00    +0.210 HD
ENDBRANCH  31  75
BRANCH  25  77
ATOM     77  C   UNL     1     145.364 169.404 189.629  0.00  0.00    +0.020 C 
ATOM     78  H   UNL     1     145.542 169.141 188.582  0.00  0.00    +0.036 HD
BRANCH  77  79
ATOM     79  C   UNL     1     146.238 170.641 189.862  0.00  0.00    -0.057 C 
ATOM     80  H   UNL     1     146.443 171.163 188.921  0.00  0.00    +0.023 HD
ATOM     81  H   UNL     1     147.210 170.352 190.280  0.00  0.00    +0.023 HD
ATOM     82  H   UNL     1     145.777 171.365 190.538  0.00  0.00    +0.023 HD
ENDBRANCH  77  79
BRANCH  77  83
ATOM     83  C   UNL     1     145.825 168.146 190.445  0.00  0.00    +0.067 C 
ATOM     84  H   UNL     1     146.305 168.468 191.378  0.00  0.00    +0.060 HD
BRANCH  83  85
ATOM     85  C   UNL     1     146.759 167.111 189.744  0.00  0.00    -0.017 C 
ATOM     86  H   UNL     1     146.276 166.126 189.787  0.00  0.00    +0.032 HD
BRANCH  85  87
ATOM     87  C   UNL     1     147.030 167.428 188.272  0.00  0.00    -0.060 C 
ATOM     88  H   UNL     1     147.427 166.558 187.747  0.00  0.00    +0.023 HD
ATOM     89  H   UNL     1     146.123 167.763 187.759  0.00  0.00    +0.023 HD
ATOM     90  H   UNL     1     147.783 168.218 188.171  0.00  0.00    +0.023 HD
ENDBRANCH  85  87
BRANCH  85  91
ATOM     91  C   UNL     1     148.111 166.909 190.486  0.00  0.00    -0.041 C 
ATOM     92  H   UNL     1     148.653 166.095 189.989  0.00  0.00    +0.027 HD
ATOM     93  H   UNL     1     147.925 166.545 191.505  0.00  0.00    +0.027 HD
BRANCH  91  94
ATOM     94  C   UNL     1     149.006 168.149 190.557  0.00  0.00    +0.007 C 
ATOM     95  H   UNL     1     150.012 167.910 190.197  0.00  0.00    +0.034 HD
ATOM     96  H   UNL     1     148.605 168.958 189.936  0.00  0.00    +0.034 HD
BRANCH  94  97
ATOM     97  C   UNL     1     149.137 168.675 191.980  0.00  0.00    +0.139 C 
ATOM     98  O   UNL     1     148.168 169.090 192.617  0.00  0.00    -0.297 OA
BRANCH  97  99
ATOM     99  C   UNL     1     150.539 168.614 192.591  0.00  0.00    +0.041 C 
ATOM    100  H   UNL     1     150.483 169.117 193.566  0.00  0.00    +0.040 HD
BRANCH  99 101
ATOM    101  C   UNL     1     151.458 169.411 191.670  0.00  0.00    -0.053 C 
ATOM    102  H   UNL     1     151.188 170.471 191.665  0.00  0.00    +0.024 HD
ATOM    103  H   UNL     1     151.387 169.062 190.633  0.00  0.00    +0.024 HD
ATOM    104  H   UNL     1     152.507 169.311 191.970  0.00  0.00    +0.024 HD
ENDBRANCH  99 101
BRANCH  99 105
ATOM    105  C   UNL     1     150.940 167.143 192.819  0.00  0.00    +0.071 C 
ATOM    106  H   UNL     1     150.661 166.538 191.946  0.00  0.00    +0.061 HD
BRANCH 105 107
ATOM    107  C   UNL     1     152.441 166.937 193.136  0.00  0.00    -0.006 C 
ATOM    108  H   UNL     1     152.934 167.913 193.233  0.00  0.00    +0.033 HD
ATOM    109  H   UNL     1     152.545 166.469 194.124  0.00  0.00    +0.033 HD
BRANCH 107 110
ATOM    110  C   UNL     1     153.154 166.044 192.154  0.00  0.00    -0.067 C 
ATOM    111  C   UNL     1     153.066 166.195 190.825  0.00  0.00    -0.005 C 
ATOM    112  H   UNL     1     153.762 165.258 192.591  0.00  0.00    +0.059 HD
ATOM    113  H   UNL     1     152.451 167.002 190.419  0.00  0.00    +0.078 HD
BRANCH 111 114
ATOM    114  N   UNL     1     153.684 165.402 189.872  0.00  0.00    -0.284 N 
ATOM    115  C   UNL     1     154.227 165.992 188.731  0.00  0.00    +0.206 C 
ATOM    116  O   UNL     1     154.211 167.183 188.443  0.00  0.00    -0.279 OA
ATOM    117  H   UNL     1     154.696 165.256 188.055  0.00  0.00    +0.126 HD
BRANCH 114 118
ATOM    118  C   UNL     1     153.779 163.959 190.031  0.00  0.00    +0.007 C 
ATOM    119  H   UNL     1     153.469 163.686 191.045  0.00  0.00    +0.043 HD
ATOM    120  H   UNL     1     153.136 163.469 189.293  0.00  0.00    +0.043 HD
ATOM    121  H   UNL     1     154.805 163.611 189.876  0.00  0.00    +0.043 HD
ENDBRANCH 114 118
ENDBRANCH 111 114
ENDBRANCH 107 110
ENDBRANCH 105 107
BRANCH 105 122
ATOM    122  O   UNL     1     150.187 166.698 193.970  0.00  0.00    -0.379 OA
BRANCH 122 123
ATOM    123  C   UNL     1     149.418 165.530 193.702  0.00  0.00    +0.037 C 
ATOM    124  H   UNL     1     148.408 165.623 194.109  0.00  0.00    +0.052 HD
ATOM    125  H   UNL     1     149.912 164.646 194.118  0.00  0.00    +0.052 HD
ATOM    126  H   UNL     1     149.347 165.410 192.617  0.00  0.00    +0.052 HD
ENDBRANCH 122 123
ENDBRANCH 105 122
ENDBRANCH  99 105
ENDBRANCH  97  99
ENDBRANCH  94  97
ENDBRANCH  91  94
ENDBRANCH  85  91
ENDBRANCH  83  85
BRANCH  83 127
ATOM    127  O   UNL     1     144.624 167.407 190.781  0.00  0.00    -0.379 OA
BRANCH 127 128
ATOM    128  C   UNL     1     144.691 166.748 192.041  0.00  0.00    +0.037 C 
ATOM    129  H   UNL     1     143.760 166.950 192.578  0.00  0.00    +0.052 HD
ATOM    130  H   UNL     1     145.524 167.124 192.640  0.00  0.00    +0.052 HD
ATOM    131  H   UNL     1     144.787 165.668 191.905  0.00  0.00    +0.052 HD
ENDBRANCH 127 128
ENDBRANCH  83 127
ENDBRANCH  77  83
ENDBRANCH  25  77
BRANCH   9 132
ATOM    132  O   UNL     1     137.341 173.717 195.257  0.00  0.00    -0.384 OA
ATOM    133  H   UNL     1     136.853 173.098 194.677  0.00  0.00    +0.210 HD
ENDBRANCH   9 132
BRANCH  29 134
ATOM    134  O   UNL     1     138.798 170.523 188.107  0.00  0.00    -0.376 OA
BRANCH 134 135
ATOM    135  C   UNL     1     138.456 169.804 186.928  0.00  0.00    +0.037 C 
ATOM    136  H   UNL     1     138.417 170.462 186.057  0.00  0.00    +0.052 HD
ATOM    137  H   UNL     1     139.162 168.989 186.744  0.00  0.00    +0.052 HD
ATOM    138  H   UNL     1     137.460 169.371 187.074  0.00  0.00    +0.052 HD
ENDBRANCH 134 135
ENDBRANCH  29 134
BRANCH   6 139
ATOM    139  O   UNL     1     134.768 172.876 195.978  0.00  0.00    -0.379 OA
BRANCH 139 140
ATOM    140  C   UNL     1     133.780 172.116 196.669  0.00  0.00    +0.037 C 
ATOM    141  H   UNL     1     133.197 172.804 197.288  0.00  0.00    +0.052 HD
ATOM    142  H   UNL     1     133.094 171.639 195.962  0.00  0.00    +0.052 HD
ATOM    143  H   UNL     1     134.245 171.369 197.320  0.00  0.00    +0.052 HD
ENDBRANCH 139 140
ENDBRANCH   6 139
BRANCH  16 144
ATOM    144  O   UNL     1     139.984 176.487 194.721  0.00  0.00    -0.379 OA
BRANCH 144 145
ATOM    145  C   UNL     1     140.147 176.726 196.114  0.00  0.00    +0.037 C 
ATOM    146  H   UNL     1     139.161 176.926 196.544  0.00  0.00    +0.052 HD
ATOM    147  H   UNL     1     140.564 175.841 196.603  0.00  0.00    +0.052 HD
ATOM    148  H   UNL     1     140.785 177.593 196.301  0.00  0.00    +0.052 HD
ENDBRANCH 144 145
ENDBRANCH  16 144
BRANCH   4 149
ATOM    149  O   UNL     1     132.267 170.810 192.391  0.00  0.00    -0.376 OA
BRANCH 149 150
ATOM    150  C   UNL     1     131.766 170.285 193.616  0.00  0.00    +0.037 C 
ATOM    151  H   UNL     1     130.675 170.257 193.552  0.00  0.00    +0.052 HD
ATOM    152  H   UNL     1     132.041 170.928 194.455  0.00  0.00    +0.052 HD
ATOM    153  H   UNL     1     132.130 169.267 193.782  0.00  0.00    +0.052 HD
ENDBRANCH 149 150
ENDBRANCH   4 149
TORSDOF 33
ENDMDL
MODEL 7
REMARK VINA RESULT:      -5.4      3.858     12.443
REMARK  Name = Sphinxolide B_conf2
REMARK  33 active torsions:
REMARK  status: ('A' for Active; 'I' for Inactive)
REMARK    1  A    between atoms: C_1  and  C_2
REMARK    2  A    between atoms: C_5  and  O_67
REMARK    3  A    between atoms: C_7  and  O_65
REMARK    4  A    between atoms: C_8  and  C_64
REMARK    5  A    between atoms: C_10  and  O_63
REMARK    6  A    between atoms: C_17  and  O_61
REMARK    7  A    between atoms: C_19  and  C_60
REMARK    8  A    between atoms: C_26  and  C_37
REMARK    9  A    between atoms: C_27  and  C_36
REMARK   10  A    between atoms: C_30  and  O_34
REMARK   11  A    between atoms: C_32  and  O_33
REMARK   12  A    between atoms: O_34  and  C_35
REMARK   13  A    between atoms: C_37  and  C_38
REMARK   14  A    between atoms: C_37  and  C_39
REMARK   15  A    between atoms: C_39  and  C_40
REMARK   16  A    between atoms: C_39  and  O_58
REMARK   17  A    between atoms: C_40  and  C_41
REMARK   18  A    between atoms: C_40  and  C_42
REMARK   19  A    between atoms: C_42  and  C_43
REMARK   20  A    between atoms: C_43  and  C_44
REMARK   21  A    between atoms: C_44  and  C_46
REMARK   22  A    between atoms: C_46  and  C_47
REMARK   23  A    between atoms: C_46  and  C_48
REMARK   24  A    between atoms: C_48  and  C_49
REMARK   25  A    between atoms: C_48  and  O_56
REMARK   26  A    between atoms: C_49  and  C_50
REMARK   27  A    between atoms: C_51  and  N_52
REMARK   28  A    between atoms: N_52  and  C_53
REMARK   29  A    between atoms: O_56  and  C_57
REMARK   30  A    between atoms: O_58  and  C_59
REMARK   31  A    between atoms: O_61  and  C_62
REMARK   32  A    between atoms: O_65  and  C_66
REMARK   33  A    between atoms: O_67  and  C_68
REMARK                            x       y       z     vdW  Elec       q    Type
REMARK                         _______ _______ _______ _____ _____    ______ ____
ROOT
ATOM      1  C   UNL     1     149.103 164.637 185.659  0.00  0.00    +0.000 C 
ATOM      2  C   UNL     1     150.575 164.336 185.409  0.00  0.00    -0.080 C 
ATOM      3  C   UNL     1     151.411 165.105 184.687  0.00  0.00    -0.059 C 
ATOM      4  C   UNL     1     152.827 164.734 184.343  0.00  0.00    +0.079 C 
ATOM      5  C   UNL     1     153.817 165.837 184.743  0.00  0.00    +0.004 C 
ATOM      6  C   UNL     1     153.984 166.091 186.257  0.00  0.00    +0.067 C 
ATOM      7  C   UNL     1     154.403 164.843 187.086  0.00  0.00    +0.022 C 
ATOM      8  C   UNL     1     154.861 165.158 188.551  0.00  0.00    +0.138 C 
ATOM      9  C   UNL     1     153.956 166.008 189.480  0.00  0.00    +0.114 C 
ATOM     10  C   UNL     1     152.818 165.191 190.021  0.00  0.00    -0.029 C 
ATOM     11  C   UNL     1     152.935 163.854 190.077  0.00  0.00    +0.024 C 
ATOM     12  C   UNL     1     154.172 163.143 189.704  0.00  0.00    +0.332 C 
ATOM     13  O   UNL     1     154.275 161.936 189.872  0.00  0.00    -0.246 OA
ATOM     14  O   UNL     1     155.179 163.904 189.214  0.00  0.00    -0.455 OA
ATOM     15  C   UNL     1     151.619 165.892 190.633  0.00  0.00    -0.002 C 
ATOM     16  C   UNL     1     151.971 166.924 191.736  0.00  0.00    +0.066 C 
ATOM     17  C   UNL     1     150.718 167.386 192.535  0.00  0.00    -0.005 C 
ATOM     18  C   UNL     1     149.878 166.289 193.181  0.00  0.00    -0.070 C 
ATOM     19  C   UNL     1     148.549 166.112 193.047  0.00  0.00    -0.062 C 
ATOM     20  C   UNL     1     147.565 166.899 192.342  0.00  0.00    -0.055 C 
ATOM     21  C   UNL     1     147.650 167.363 191.088  0.00  0.00    +0.023 C 
ATOM     22  C   UNL     1     146.554 168.096 190.421  0.00  0.00    +0.332 C 
ATOM     23  O   UNL     1     146.739 168.799 189.440  0.00  0.00    -0.246 OA
ATOM     24  O   UNL     1     145.360 167.816 190.999  0.00  0.00    -0.457 OA
ATOM     25  C   UNL     1     144.173 168.082 190.221  0.00  0.00    +0.114 C 
ATOM     26  C   UNL     1     143.691 166.698 189.658  0.00  0.00    +0.012 C 
ATOM     27  C   UNL     1     144.714 165.981 188.794  0.00  0.00    -0.079 C 
ATOM     28  C   UNL     1     145.331 166.488 187.711  0.00  0.00    -0.059 C 
ATOM     29  C   UNL     1     146.343 165.782 186.827  0.00  0.00    +0.079 C 
ATOM     30  C   UNL     1     147.757 166.226 187.242  0.00  0.00    +0.004 C 
ATOM     31  C   UNL     1     148.857 166.081 186.174  0.00  0.00    +0.064 C 
ATOM     32  H   UNL     1     148.795 163.940 186.449  0.00  0.00    +0.037 HD
ATOM     33  H   UNL     1     150.928 163.382 185.798  0.00  0.00    +0.057 HD
ATOM     34  H   UNL     1     151.040 166.032 184.250  0.00  0.00    +0.059 HD
ATOM     35  H   UNL     1     153.112 163.781 184.803  0.00  0.00    +0.064 HD
ATOM     36  H   UNL     1     154.798 165.639 184.290  0.00  0.00    +0.032 HD
ATOM     37  H   UNL     1     153.501 166.766 184.251  0.00  0.00    +0.032 HD
ATOM     38  H   UNL     1     153.024 166.451 186.641  0.00  0.00    +0.060 HD
ATOM     39  H   UNL     1     153.552 164.153 187.126  0.00  0.00    +0.036 HD
ATOM     40  H   UNL     1     155.817 165.696 188.482  0.00  0.00    +0.077 HD
ATOM     41  H   UNL     1     154.562 166.323 190.339  0.00  0.00    +0.068 HD
ATOM     42  H   UNL     1     152.162 163.222 190.499  0.00  0.00    +0.069 HD
ATOM     43  H   UNL     1     150.953 165.126 191.047  0.00  0.00    +0.034 HD
ATOM     44  H   UNL     1     151.045 166.389 189.839  0.00  0.00    +0.034 HD
ATOM     45  H   UNL     1     152.401 167.806 191.247  0.00  0.00    +0.060 HD
ATOM     46  H   UNL     1     150.111 168.005 191.867  0.00  0.00    +0.034 HD
ATOM     47  H   UNL     1     151.034 168.056 193.343  0.00  0.00    +0.034 HD
ATOM     48  H   UNL     1     148.084 165.299 193.608  0.00  0.00    +0.062 HD
ATOM     49  H   UNL     1     146.644 167.042 192.907  0.00  0.00    +0.062 HD
ATOM     50  H   UNL     1     148.531 167.226 190.475  0.00  0.00    +0.069 HD
ATOM     51  H   UNL     1     144.389 168.744 189.374  0.00  0.00    +0.074 HD
ATOM     52  H   UNL     1     143.535 166.031 190.515  0.00  0.00    +0.038 HD
ATOM     53  H   UNL     1     144.947 164.961 189.098  0.00  0.00    +0.057 HD
ATOM     54  H   UNL     1     145.119 167.512 187.411  0.00  0.00    +0.059 HD
ATOM     55  H   UNL     1     146.146 166.061 185.785  0.00  0.00    +0.064 HD
ATOM     56  H   UNL     1     148.067 165.668 188.134  0.00  0.00    +0.032 HD
ATOM     57  H   UNL     1     147.731 167.289 187.515  0.00  0.00    +0.032 HD
ATOM     58  H   UNL     1     149.781 166.442 186.650  0.00  0.00    +0.060 HD
ENDROOT
BRANCH   1  59
ATOM     59  C   UNL     1     148.337 164.296 184.374  0.00  0.00    -0.057 C 
ATOM     60  H   UNL     1     147.418 164.885 184.277  0.00  0.00    +0.024 HD
ATOM     61  H   UNL     1     148.953 164.504 183.490  0.00  0.00    +0.024 HD
ATOM     62  H   UNL     1     148.049 163.245 184.333  0.00  0.00    +0.024 HD
ENDBRANCH   1  59
BRANCH  26  63
ATOM     63  C   UNL     1     142.368 166.776 188.885  0.00  0.00    -0.056 C 
ATOM     64  H   UNL     1     142.519 167.183 187.879  0.00  0.00    +0.024 HD
ATOM     65  H   UNL     1     141.643 167.414 189.400  0.00  0.00    +0.024 HD
ATOM     66  H   UNL     1     141.923 165.785 188.758  0.00  0.00    +0.024 HD
ENDBRANCH  26  63
BRANCH  18  67
ATOM     67  C   UNL     1     150.632 165.364 194.114  0.00  0.00    -0.043 C 
ATOM     68  H   UNL     1     150.062 165.138 195.021  0.00  0.00    +0.027 HD
ATOM     69  H   UNL     1     150.852 164.411 193.628  0.00  0.00    +0.027 HD
ATOM     70  H   UNL     1     151.570 165.830 194.435  0.00  0.00    +0.027 HD
ENDBRANCH  18  67
BRANCH   7  71
ATOM     71  C   UNL     1     155.560 164.073 186.402  0.00  0.00    -0.057 C 
ATOM     72  H   UNL     1     156.060 164.683 185.644  0.00  0.00    +0.023 HD
ATOM     73  H   UNL     1     155.191 163.165 185.912  0.00  0.00    +0.023 HD
ATOM     74  H   UNL     1     156.338 163.780 187.112  0.00  0.00    +0.023 HD
ENDBRANCH   7  71
BRANCH  31  75
ATOM     75  O   UNL     1     148.585 166.980 185.095  0.00  0.00    -0.391 OA
ATOM     76  H   UNL     1     147.745 166.702 184.690  0.00  0.00    +0.210 HD
ENDBRANCH  31  75
BRANCH  25  77
ATOM     77  C   UNL     1     143.114 168.791 191.119  0.00  0.00    +0.020 C 
ATOM     78  H   UNL     1     142.144 168.566 190.667  0.00  0.00    +0.036 HD
BRANCH  77  79
ATOM     79  C   UNL     1     143.017 168.207 192.533  0.00  0.00    -0.057 C 
ATOM     80  H   UNL     1     142.442 167.274 192.537  0.00  0.00    +0.023 HD
ATOM     81  H   UNL     1     142.495 168.902 193.202  0.00  0.00    +0.023 HD
ATOM     82  H   UNL     1     143.994 167.984 192.968  0.00  0.00    +0.023 HD
ENDBRANCH  77  79
BRANCH  77  83
ATOM     83  C   UNL     1     143.219 170.356 191.092  0.00  0.00    +0.067 C 
ATOM     84  H   UNL     1     143.658 170.712 192.033  0.00  0.00    +0.060 HD
BRANCH  83  85
ATOM     85  C   UNL     1     141.924 171.180 190.811  0.00  0.00    -0.017 C 
ATOM     86  H   UNL     1     142.095 171.799 189.921  0.00  0.00    +0.032 HD
BRANCH  85  87
ATOM     87  C   UNL     1     140.693 170.312 190.540  0.00  0.00    -0.060 C 
ATOM     88  H   UNL     1     140.952 169.252 190.526  0.00  0.00    +0.023 HD
ATOM     89  H   UNL     1     139.914 170.473 191.293  0.00  0.00    +0.023 HD
ATOM     90  H   UNL     1     140.261 170.536 189.559  0.00  0.00    +0.023 HD
ENDBRANCH  85  87
BRANCH  85  91
ATOM     91  C   UNL     1     141.596 172.203 191.936  0.00  0.00    -0.041 C 
ATOM     92  H   UNL     1     142.073 171.857 192.860  0.00  0.00    +0.027 HD
ATOM     93  H   UNL     1     140.519 172.186 192.150  0.00  0.00    +0.027 HD
BRANCH  91  94
ATOM     94  C   UNL     1     142.023 173.645 191.649  0.00  0.00    +0.007 C 
ATOM     95  H   UNL     1     143.058 173.668 191.292  0.00  0.00    +0.034 HD
ATOM     96  H   UNL     1     141.387 174.096 190.880  0.00  0.00    +0.034 HD
BRANCH  94  97
ATOM     97  C   UNL     1     141.944 174.520 192.892  0.00  0.00    +0.139 C 
ATOM     98  O   UNL     1     141.139 174.299 193.798  0.00  0.00    -0.297 OA
BRANCH  97  99
ATOM     99  C   UNL     1     142.957 175.663 192.973  0.00  0.00    +0.041 C 
ATOM    100  H   UNL     1     143.818 175.371 192.356  0.00  0.00    +0.040 HD
BRANCH  99 101
ATOM    101  C   UNL     1     143.398 175.762 194.430  0.00  0.00    -0.053 C 
ATOM    102  H   UNL     1     142.970 176.645 194.912  0.00  0.00    +0.024 HD
ATOM    103  H   UNL     1     144.488 175.852 194.514  0.00  0.00    +0.024 HD
ATOM    104  H   UNL     1     143.108 174.870 194.996  0.00  0.00    +0.024 HD
ENDBRANCH  99 101
BRANCH  99 105
ATOM    105  C   UNL     1     142.339 176.945 192.378  0.00  0.00    +0.071 C 
ATOM    106  H   UNL     1     142.689 177.824 192.934  0.00  0.00    +0.061 HD
BRANCH 105 107
ATOM    107  C   UNL     1     142.615 177.140 190.868  0.00  0.00    -0.006 C 
ATOM    108  H   UNL     1     143.442 176.488 190.557  0.00  0.00    +0.033 HD
ATOM    109  H   UNL     1     141.749 176.792 190.289  0.00  0.00    +0.033 HD
BRANCH 107 110
ATOM    110  C   UNL     1     142.855 178.574 190.473  0.00  0.00    -0.067 C 
ATOM    111  C   UNL     1     144.038 179.028 190.033  0.00  0.00    -0.005 C 
ATOM    112  H   UNL     1     141.997 179.233 190.560  0.00  0.00    +0.059 HD
ATOM    113  H   UNL     1     144.878 178.334 189.951  0.00  0.00    +0.078 HD
BRANCH 111 114
ATOM    114  N   UNL     1     144.325 180.333 189.670  0.00  0.00    -0.284 N 
ATOM    115  C   UNL     1     145.647 180.707 189.432  0.00  0.00    +0.206 C 
ATOM    116  O   UNL     1     146.639 179.992 189.523  0.00  0.00    -0.279 OA
ATOM    117  H   UNL     1     145.744 181.768 189.143  0.00  0.00    +0.126 HD
BRANCH 114 118
ATOM    118  C   UNL     1     143.276 181.331 189.533  0.00  0.00    +0.007 C 
ATOM    119  H   UNL     1     142.680 181.358 190.451  0.00  0.00    +0.043 HD
ATOM    120  H   UNL     1     143.728 182.310 189.344  0.00  0.00    +0.043 HD
ATOM    121  H   UNL     1     142.612 181.094 188.695  0.00  0.00    +0.043 HD
ENDBRANCH 114 118
ENDBRANCH 111 114
ENDBRANCH 107 110
ENDBRANCH 105 107
BRANCH 105 122
ATOM    122  O   UNL     1     140.909 176.812 192.545  0.00  0.00    -0.379 OA
BRANCH 122 123
ATOM    123  C   UNL     1     140.345 177.878 193.303  0.00  0.00    +0.037 C 
ATOM    124  H   UNL     1     140.568 178.845 192.846  0.00  0.00    +0.052 HD
ATOM    125  H   UNL     1     140.720 177.852 194.331  0.00  0.00    +0.052 HD
ATOM    126  H   UNL     1     139.260 177.744 193.324  0.00  0.00    +0.052 HD
ENDBRANCH 122 123
ENDBRANCH 105 122
ENDBRANCH  99 105
ENDBRANCH  97  99
ENDBRANCH  94  97
ENDBRANCH  91  94
ENDBRANCH  85  91
ENDBRANCH  83  85
BRANCH  83 127
ATOM    127  O   UNL     1     144.124 170.691 190.010  0.00  0.00    -0.379 OA
BRANCH 127 128
ATOM    128  C   UNL     1     145.014 171.758 190.319  0.00  0.00    +0.037 C 
ATOM    129  H   UNL     1     144.627 172.668 189.852  0.00  0.00    +0.052 HD
ATOM    130  H   UNL     1     146.014 171.566 189.925  0.00  0.00    +0.052 HD
ATOM    131  H   UNL     1     145.064 171.916 191.400  0.00  0.00    +0.052 HD
ENDBRANCH 127 128
ENDBRANCH  83 127
ENDBRANCH  77  83
ENDBRANCH  25  77
BRANCH   9 132
ATOM    132  O   UNL     1     153.459 167.186 188.872  0.00  0.00    -0.384 OA
ATOM    133  H   UNL     1     153.911 167.933 189.314  0.00  0.00    +0.210 HD
ENDBRANCH   9 132
BRANCH  29 134
ATOM    134  O   UNL     1     146.258 164.358 186.979  0.00  0.00    -0.376 OA
BRANCH 134 135
ATOM    135  C   UNL     1     145.292 163.758 186.123  0.00  0.00    +0.037 C 
ATOM    136  H   UNL     1     144.279 163.896 186.507  0.00  0.00    +0.052 HD
ATOM    137  H   UNL     1     145.360 164.160 185.109  0.00  0.00    +0.052 HD
ATOM    138  H   UNL     1     145.499 162.683 186.083  0.00  0.00    +0.052 HD
ENDBRANCH 134 135
ENDBRANCH  29 134
BRANCH   6 139
ATOM    139  O   UNL     1     154.973 167.110 186.515  0.00  0.00    -0.379 OA
BRANCH 139 140
ATOM    140  C   UNL     1     155.674 167.571 185.365  0.00  0.00    +0.037 C 
ATOM    141  H   UNL     1     155.342 166.978 184.507  0.00  0.00    +0.052 HD
ATOM    142  H   UNL     1     155.436 168.618 185.159  0.00  0.00    +0.052 HD
ATOM    143  H   UNL     1     156.754 167.436 185.484  0.00  0.00    +0.052 HD
ENDBRANCH 139 140
ENDBRANCH   6 139
BRANCH  16 144
ATOM    144  O   UNL     1     152.960 166.366 192.616  0.00  0.00    -0.379 OA
BRANCH 144 145
ATOM    145  C   UNL     1     153.707 167.350 193.320  0.00  0.00    +0.037 C 
ATOM    146  H   UNL     1     153.023 167.896 193.976  0.00  0.00    +0.052 HD
ATOM    147  H   UNL     1     154.472 166.873 193.939  0.00  0.00    +0.052 HD
ATOM    148  H   UNL     1     154.171 168.066 192.637  0.00  0.00    +0.052 HD
ENDBRANCH 144 145
ENDBRANCH  16 144
BRANCH   4 149
ATOM    149  O   UNL     1     152.930 164.610 182.915  0.00  0.00    -0.376 OA
BRANCH 149 150
ATOM    150  C   UNL     1     153.884 165.496 182.340  0.00  0.00    +0.037 C 
ATOM    151  H   UNL     1     153.669 166.506 182.699  0.00  0.00    +0.052 HD
ATOM    152  H   UNL     1     153.803 165.498 181.250  0.00  0.00    +0.052 HD
ATOM    153  H   UNL     1     154.899 165.228 182.646  0.00  0.00    +0.052 HD
ENDBRANCH 149 150
ENDBRANCH   4 149
TORSDOF 33
ENDMDL
MODEL 8
REMARK VINA RESULT:      -5.3      4.545     12.640
REMARK  Name = Sphinxolide B_conf2
REMARK  33 active torsions:
REMARK  status: ('A' for Active; 'I' for Inactive)
REMARK    1  A    between atoms: C_1  and  C_2
REMARK    2  A    between atoms: C_5  and  O_67
REMARK    3  A    between atoms: C_7  and  O_65
REMARK    4  A    between atoms: C_8  and  C_64
REMARK    5  A    between atoms: C_10  and  O_63
REMARK    6  A    between atoms: C_17  and  O_61
REMARK    7  A    between atoms: C_19  and  C_60
REMARK    8  A    between atoms: C_26  and  C_37
REMARK    9  A    between atoms: C_27  and  C_36
REMARK   10  A    between atoms: C_30  and  O_34
REMARK   11  A    between atoms: C_32  and  O_33
REMARK   12  A    between atoms: O_34  and  C_35
REMARK   13  A    between atoms: C_37  and  C_38
REMARK   14  A    between atoms: C_37  and  C_39
REMARK   15  A    between atoms: C_39  and  C_40
REMARK   16  A    between atoms: C_39  and  O_58
REMARK   17  A    between atoms: C_40  and  C_41
REMARK   18  A    between atoms: C_40  and  C_42
REMARK   19  A    between atoms: C_42  and  C_43
REMARK   20  A    between atoms: C_43  and  C_44
REMARK   21  A    between atoms: C_44  and  C_46
REMARK   22  A    between atoms: C_46  and  C_47
REMARK   23  A    between atoms: C_46  and  C_48
REMARK   24  A    between atoms: C_48  and  C_49
REMARK   25  A    between atoms: C_48  and  O_56
REMARK   26  A    between atoms: C_49  and  C_50
REMARK   27  A    between atoms: C_51  and  N_52
REMARK   28  A    between atoms: N_52  and  C_53
REMARK   29  A    between atoms: O_56  and  C_57
REMARK   30  A    between atoms: O_58  and  C_59
REMARK   31  A    between atoms: O_61  and  C_62
REMARK   32  A    between atoms: O_65  and  C_66
REMARK   33  A    between atoms: O_67  and  C_68
REMARK                            x       y       z     vdW  Elec       q    Type
REMARK                         _______ _______ _______ _____ _____    ______ ____
ROOT
ATOM      1  C   UNL     1     149.217 164.481 185.628  0.00  0.00    +0.000 C 
ATOM      2  C   UNL     1     150.700 164.227 185.386  0.00  0.00    -0.080 C 
ATOM      3  C   UNL     1     151.512 165.020 184.663  0.00  0.00    -0.059 C 
ATOM      4  C   UNL     1     152.941 164.695 184.326  0.00  0.00    +0.079 C 
ATOM      5  C   UNL     1     153.893 165.832 184.723  0.00  0.00    +0.004 C 
ATOM      6  C   UNL     1     154.045 166.100 186.236  0.00  0.00    +0.067 C 
ATOM      7  C   UNL     1     154.502 164.872 187.074  0.00  0.00    +0.022 C 
ATOM      8  C   UNL     1     154.944 165.210 188.539  0.00  0.00    +0.138 C 
ATOM      9  C   UNL     1     154.008 166.034 189.460  0.00  0.00    +0.114 C 
ATOM     10  C   UNL     1     152.895 165.182 190.001  0.00  0.00    -0.029 C 
ATOM     11  C   UNL     1     153.057 163.850 190.065  0.00  0.00    +0.024 C 
ATOM     12  C   UNL     1     154.319 163.179 189.700  0.00  0.00    +0.332 C 
ATOM     13  O   UNL     1     154.461 161.977 189.875  0.00  0.00    -0.246 OA
ATOM     14  O   UNL     1     155.302 163.970 189.210  0.00  0.00    -0.455 OA
ATOM     15  C   UNL     1     151.672 165.846 190.605  0.00  0.00    -0.002 C 
ATOM     16  C   UNL     1     151.984 166.894 191.703  0.00  0.00    +0.066 C 
ATOM     17  C   UNL     1     150.714 167.319 192.495  0.00  0.00    -0.005 C 
ATOM     18  C   UNL     1     149.909 166.198 193.144  0.00  0.00    -0.070 C 
ATOM     19  C   UNL     1     148.587 165.976 193.007  0.00  0.00    -0.062 C 
ATOM     20  C   UNL     1     147.580 166.726 192.293  0.00  0.00    -0.055 C 
ATOM     21  C   UNL     1     147.653 167.185 191.037  0.00  0.00    +0.023 C 
ATOM     22  C   UNL     1     146.536 167.877 190.362  0.00  0.00    +0.332 C 
ATOM     23  O   UNL     1     146.701 168.581 189.378  0.00  0.00    -0.246 OA
ATOM     24  O   UNL     1     145.350 167.561 190.937  0.00  0.00    -0.457 OA
ATOM     25  C   UNL     1     144.158 167.783 190.154  0.00  0.00    +0.114 C 
ATOM     26  C   UNL     1     143.725 166.380 189.597  0.00  0.00    +0.012 C 
ATOM     27  C   UNL     1     144.775 165.693 188.740  0.00  0.00    -0.079 C 
ATOM     28  C   UNL     1     145.378 166.215 187.657  0.00  0.00    -0.059 C 
ATOM     29  C   UNL     1     146.416 165.538 186.781  0.00  0.00    +0.079 C 
ATOM     30  C   UNL     1     147.813 166.032 187.198  0.00  0.00    +0.004 C 
ATOM     31  C   UNL     1     148.921 165.917 186.135  0.00  0.00    +0.064 C 
ATOM     32  H   UNL     1     148.930 163.778 186.421  0.00  0.00    +0.037 HD
ATOM     33  H   UNL     1     151.084 163.288 185.781  0.00  0.00    +0.057 HD
ATOM     34  H   UNL     1     151.113 165.931 184.219  0.00  0.00    +0.059 HD
ATOM     35  H   UNL     1     153.257 163.755 184.792  0.00  0.00    +0.064 HD
ATOM     36  H   UNL     1     154.881 165.666 184.274  0.00  0.00    +0.032 HD
ATOM     37  H   UNL     1     153.547 166.748 184.224  0.00  0.00    +0.032 HD
ATOM     38  H   UNL     1     153.072 166.430 186.615  0.00  0.00    +0.060 HD
ATOM     39  H   UNL     1     153.675 164.154 187.114  0.00  0.00    +0.036 HD
ATOM     40  H   UNL     1     155.882 165.779 188.470  0.00  0.00    +0.077 HD
ATOM     41  H   UNL     1     154.600 166.374 190.319  0.00  0.00    +0.068 HD
ATOM     42  H   UNL     1     152.304 163.194 190.487  0.00  0.00    +0.069 HD
ATOM     43  H   UNL     1     151.030 165.060 191.021  0.00  0.00    +0.034 HD
ATOM     44  H   UNL     1     151.084 166.319 189.806  0.00  0.00    +0.034 HD
ATOM     45  H   UNL     1     152.387 167.788 191.211  0.00  0.00    +0.060 HD
ATOM     46  H   UNL     1     150.089 167.913 191.822  0.00  0.00    +0.034 HD
ATOM     47  H   UNL     1     151.004 168.003 193.301  0.00  0.00    +0.034 HD
ATOM     48  H   UNL     1     148.147 165.151 193.570  0.00  0.00    +0.062 HD
ATOM     49  H   UNL     1     146.652 166.840 192.855  0.00  0.00    +0.062 HD
ATOM     50  H   UNL     1     148.542 167.074 190.428  0.00  0.00    +0.069 HD
ATOM     51  H   UNL     1     144.355 168.447 189.304  0.00  0.00    +0.074 HD
ATOM     52  H   UNL     1     143.588 165.713 190.457  0.00  0.00    +0.038 HD
ATOM     53  H   UNL     1     145.040 164.683 189.051  0.00  0.00    +0.057 HD
ATOM     54  H   UNL     1     145.133 167.229 187.351  0.00  0.00    +0.059 HD
ATOM     55  H   UNL     1     146.214 165.805 185.737  0.00  0.00    +0.064 HD
ATOM     56  H   UNL     1     148.139 165.489 188.095  0.00  0.00    +0.032 HD
ATOM     57  H   UNL     1     147.750 167.094 187.465  0.00  0.00    +0.032 HD
ATOM     58  H   UNL     1     149.831 166.312 186.613  0.00  0.00    +0.060 HD
ENDROOT
BRANCH   1  59
ATOM     59  C   UNL     1     148.469 164.106 184.343  0.00  0.00    -0.057 C 
ATOM     60  H   UNL     1     147.508 163.623 184.556  0.00  0.00    +0.024 HD
ATOM     61  H   UNL     1     148.258 165.001 183.744  0.00  0.00    +0.024 HD
ATOM     62  H   UNL     1     149.040 163.420 183.718  0.00  0.00    +0.024 HD
ENDBRANCH   1  59
BRANCH  26  63
ATOM     63  C   UNL     1     142.403 166.409 188.819  0.00  0.00    -0.056 C 
ATOM     64  H   UNL     1     142.232 165.465 188.290  0.00  0.00    +0.024 HD
ATOM     65  H   UNL     1     142.395 167.216 188.079  0.00  0.00    +0.024 HD
ATOM     66  H   UNL     1     141.550 166.551 189.490  0.00  0.00    +0.024 HD
ENDBRANCH  26  63
BRANCH  18  67
ATOM     67  C   UNL     1     150.690 165.304 194.085  0.00  0.00    -0.043 C 
ATOM     68  H   UNL     1     151.162 164.465 193.563  0.00  0.00    +0.027 HD
ATOM     69  H   UNL     1     151.487 165.861 194.583  0.00  0.00    +0.027 HD
ATOM     70  H   UNL     1     150.024 164.874 194.842  0.00  0.00    +0.027 HD
ENDBRANCH  18  67
BRANCH   7  71
ATOM     71  C   UNL     1     155.687 164.137 186.398  0.00  0.00    -0.057 C 
ATOM     72  H   UNL     1     155.807 164.439 185.354  0.00  0.00    +0.023 HD
ATOM     73  H   UNL     1     155.539 163.051 186.419  0.00  0.00    +0.023 HD
ATOM     74  H   UNL     1     156.640 164.356 186.885  0.00  0.00    +0.023 HD
ENDBRANCH   7  71
BRANCH  31  75
ATOM     75  O   UNL     1     148.624 166.802 185.050  0.00  0.00    -0.391 OA
ATOM     76  H   UNL     1     147.847 166.442 184.588  0.00  0.00    +0.210 HD
ENDBRANCH  31  75
BRANCH  25  77
ATOM     77  C   UNL     1     143.072 168.460 191.045  0.00  0.00    +0.020 C 
ATOM     78  H   UNL     1     142.111 168.196 190.593  0.00  0.00    +0.036 HD
BRANCH  77  79
ATOM     79  C   UNL     1     142.994 167.886 192.464  0.00  0.00    -0.057 C 
ATOM     80  H   UNL     1     143.723 168.368 193.125  0.00  0.00    +0.023 HD
ATOM     81  H   UNL     1     143.232 166.816 192.460  0.00  0.00    +0.023 HD
ATOM     82  H   UNL     1     142.011 168.016 192.921  0.00  0.00    +0.023 HD
ENDBRANCH  77  79
BRANCH  77  83
ATOM     83  C   UNL     1     143.120 170.028 191.003  0.00  0.00    +0.067 C 
ATOM     84  H   UNL     1     143.555 170.408 191.937  0.00  0.00    +0.060 HD
BRANCH  83  85
ATOM     85  C   UNL     1     141.793 170.801 190.729  0.00  0.00    -0.017 C 
ATOM     86  H   UNL     1     141.917 171.382 189.805  0.00  0.00    +0.032 HD
BRANCH  85  87
ATOM     87  C   UNL     1     140.580 169.889 190.542  0.00  0.00    -0.060 C 
ATOM     88  H   UNL     1     139.792 170.128 191.259  0.00  0.00    +0.023 HD
ATOM     89  H   UNL     1     140.169 169.968 189.530  0.00  0.00    +0.023 HD
ATOM     90  H   UNL     1     140.844 168.840 190.715  0.00  0.00    +0.023 HD
ENDBRANCH  85  87
BRANCH  85  91
ATOM     91  C   UNL     1     141.474 171.869 191.814  0.00  0.00    -0.041 C 
ATOM     92  H   UNL     1     142.148 171.703 192.663  0.00  0.00    +0.027 HD
ATOM     93  H   UNL     1     140.466 171.699 192.216  0.00  0.00    +0.027 HD
BRANCH  91  94
ATOM     94  C   UNL     1     141.585 173.323 191.350  0.00  0.00    +0.007 C 
ATOM     95  H   UNL     1     141.998 173.365 190.336  0.00  0.00    +0.034 HD
ATOM     96  H   UNL     1     140.602 173.807 191.337  0.00  0.00    +0.034 HD
BRANCH  94  97
ATOM     97  C   UNL     1     142.496 174.141 192.254  0.00  0.00    +0.139 C 
ATOM     98  O   UNL     1     143.710 173.940 192.316  0.00  0.00    -0.297 OA
BRANCH  97  99
ATOM     99  C   UNL     1     141.822 175.262 193.049  0.00  0.00    +0.041 C 
ATOM    100  H   UNL     1     141.148 175.783 192.355  0.00  0.00    +0.040 HD
BRANCH  99 101
ATOM    101  C   UNL     1     142.926 176.220 193.486  0.00  0.00    -0.053 C 
ATOM    102  H   UNL     1     142.564 177.252 193.514  0.00  0.00    +0.024 HD
ATOM    103  H   UNL     1     143.773 176.200 192.790  0.00  0.00    +0.024 HD
ATOM    104  H   UNL     1     143.318 175.952 194.474  0.00  0.00    +0.024 HD
ENDBRANCH  99 101
BRANCH  99 105
ATOM    105  C   UNL     1     140.980 174.653 194.189  0.00  0.00    +0.071 C 
ATOM    106  H   UNL     1     141.103 173.563 194.205  0.00  0.00    +0.061 HD
BRANCH 105 107
ATOM    107  C   UNL     1     141.295 175.234 195.589  0.00  0.00    -0.006 C 
ATOM    108  H   UNL     1     141.546 174.417 196.278  0.00  0.00    +0.033 HD
ATOM    109  H   UNL     1     142.203 175.847 195.535  0.00  0.00    +0.033 HD
BRANCH 107 110
ATOM    110  C   UNL     1     140.204 176.115 196.141  0.00  0.00    -0.067 C 
ATOM    111  C   UNL     1     140.311 177.448 196.231  0.00  0.00    -0.005 C 
ATOM    112  H   UNL     1     139.305 175.600 196.465  0.00  0.00    +0.059 HD
ATOM    113  H   UNL     1     141.228 177.935 195.889  0.00  0.00    +0.078 HD
BRANCH 111 114
ATOM    114  N   UNL     1     139.353 178.310 196.741  0.00  0.00    -0.284 N 
ATOM    115  C   UNL     1     139.305 179.629 196.294  0.00  0.00    +0.206 C 
ATOM    116  O   UNL     1     140.052 180.154 195.475  0.00  0.00    -0.279 OA
ATOM    117  H   UNL     1     138.496 180.210 196.769  0.00  0.00    +0.126 HD
BRANCH 114 118
ATOM    118  C   UNL     1     138.392 177.870 197.740  0.00  0.00    +0.007 C 
ATOM    119  H   UNL     1     138.493 178.491 198.637  0.00  0.00    +0.043 HD
ATOM    120  H   UNL     1     137.380 177.952 197.333  0.00  0.00    +0.043 HD
ATOM    121  H   UNL     1     138.564 176.826 198.022  0.00  0.00    +0.043 HD
ENDBRANCH 114 118
ENDBRANCH 111 114
ENDBRANCH 107 110
ENDBRANCH 105 107
BRANCH 105 122
ATOM    122  O   UNL     1     139.604 174.975 193.884  0.00  0.00    -0.379 OA
BRANCH 122 123
ATOM    123  C   UNL     1     138.803 173.815 193.684  0.00  0.00    +0.037 C 
ATOM    124  H   UNL     1     139.052 173.323 192.740  0.00  0.00    +0.052 HD
ATOM    125  H   UNL     1     137.741 174.079 193.702  0.00  0.00    +0.052 HD
ATOM    126  H   UNL     1     139.002 173.118 194.503  0.00  0.00    +0.052 HD
ENDBRANCH 122 123
ENDBRANCH 105 122
ENDBRANCH  99 105
ENDBRANCH  97  99
ENDBRANCH  94  97
ENDBRANCH  91  94
ENDBRANCH  85  91
ENDBRANCH  83  85
BRANCH  83 127
ATOM    127  O   UNL     1     144.002 170.386 189.910  0.00  0.00    -0.379 OA
BRANCH 127 128
ATOM    128  C   UNL     1     144.861 171.483 190.204  0.00  0.00    +0.037 C 
ATOM    129  H   UNL     1     145.608 171.550 189.409  0.00  0.00    +0.052 HD
ATOM    130  H   UNL     1     145.379 171.336 191.154  0.00  0.00    +0.052 HD
ATOM    131  H   UNL     1     144.294 172.418 190.229  0.00  0.00    +0.052 HD
ENDBRANCH 127 128
ENDBRANCH  83 127
ENDBRANCH  77  83
ENDBRANCH  25  77
BRANCH   9 132
ATOM    132  O   UNL     1     153.474 167.191 188.843  0.00  0.00    -0.384 OA
ATOM    133  H   UNL     1     153.680 167.113 187.890  0.00  0.00    +0.210 HD
ENDBRANCH   9 132
BRANCH  29 134
ATOM    134  O   UNL     1     146.379 164.113 186.940  0.00  0.00    -0.376 OA
BRANCH 134 135
ATOM    135  C   UNL     1     145.437 163.476 186.084  0.00  0.00    +0.037 C 
ATOM    136  H   UNL     1     145.257 164.065 185.182  0.00  0.00    +0.052 HD
ATOM    137  H   UNL     1     145.770 162.472 185.809  0.00  0.00    +0.052 HD
ATOM    138  H   UNL     1     144.491 163.389 186.629  0.00  0.00    +0.052 HD
ENDBRANCH 134 135
ENDBRANCH  29 134
BRANCH   6 139
ATOM    139  O   UNL     1     154.998 167.153 186.493  0.00  0.00    -0.379 OA
BRANCH 139 140
ATOM    140  C   UNL     1     155.687 167.632 185.342  0.00  0.00    +0.037 C 
ATOM    141  H   UNL     1     155.954 166.769 184.725  0.00  0.00    +0.052 HD
ATOM    142  H   UNL     1     155.039 168.281 184.745  0.00  0.00    +0.052 HD
ATOM    143  H   UNL     1     156.605 168.157 185.624  0.00  0.00    +0.052 HD
ENDBRANCH 139 140
ENDBRANCH   6 139
BRANCH  16 144
ATOM    144  O   UNL     1     152.988 166.375 192.590  0.00  0.00    -0.379 OA
BRANCH 144 145
ATOM    145  C   UNL     1     153.679 167.386 193.314  0.00  0.00    +0.037 C 
ATOM    146  H   UNL     1     154.581 167.651 192.754  0.00  0.00    +0.052 HD
ATOM    147  H   UNL     1     153.054 168.278 193.406  0.00  0.00    +0.052 HD
ATOM    148  H   UNL     1     153.981 167.036 194.304  0.00  0.00    +0.052 HD
ENDBRANCH 144 145
ENDBRANCH  16 144
BRANCH   4 149
ATOM    149  O   UNL     1     153.053 164.567 182.899  0.00  0.00    -0.376 OA
BRANCH 149 150
ATOM    150  C   UNL     1     153.929 165.525 182.314  0.00  0.00    +0.037 C 
ATOM    151  H   UNL     1     154.887 165.035 182.118  0.00  0.00    +0.052 HD
ATOM    152  H   UNL     1     154.106 166.357 182.999  0.00  0.00    +0.052 HD
ATOM    153  H   UNL     1     153.528 165.892 181.365  0.00  0.00    +0.052 HD
ENDBRANCH 149 150
ENDBRANCH   4 149
TORSDOF 33
ENDMDL
MODEL 9
REMARK VINA RESULT:      -5.3      4.183      8.616
REMARK  Name = Sphinxolide B_conf2
REMARK  33 active torsions:
REMARK  status: ('A' for Active; 'I' for Inactive)
REMARK    1  A    between atoms: C_1  and  C_2
REMARK    2  A    between atoms: C_5  and  O_67
REMARK    3  A    between atoms: C_7  and  O_65
REMARK    4  A    between atoms: C_8  and  C_64
REMARK    5  A    between atoms: C_10  and  O_63
REMARK    6  A    between atoms: C_17  and  O_61
REMARK    7  A    between atoms: C_19  and  C_60
REMARK    8  A    between atoms: C_26  and  C_37
REMARK    9  A    between atoms: C_27  and  C_36
REMARK   10  A    between atoms: C_30  and  O_34
REMARK   11  A    between atoms: C_32  and  O_33
REMARK   12  A    between atoms: O_34  and  C_35
REMARK   13  A    between atoms: C_37  and  C_38
REMARK   14  A    between atoms: C_37  and  C_39
REMARK   15  A    between atoms: C_39  and  C_40
REMARK   16  A    between atoms: C_39  and  O_58
REMARK   17  A    between atoms: C_40  and  C_41
REMARK   18  A    between atoms: C_40  and  C_42
REMARK   19  A    between atoms: C_42  and  C_43
REMARK   20  A    between atoms: C_43  and  C_44
REMARK   21  A    between atoms: C_44  and  C_46
REMARK   22  A    between atoms: C_46  and  C_47
REMARK   23  A    between atoms: C_46  and  C_48
REMARK   24  A    between atoms: C_48  and  C_49
REMARK   25  A    between atoms: C_48  and  O_56
REMARK   26  A    between atoms: C_49  and  C_50
REMARK   27  A    between atoms: C_51  and  N_52
REMARK   28  A    between atoms: N_52  and  C_53
REMARK   29  A    between atoms: O_56  and  C_57
REMARK   30  A    between atoms: O_58  and  C_59
REMARK   31  A    between atoms: O_61  and  C_62
REMARK   32  A    between atoms: O_65  and  C_66
REMARK   33  A    between atoms: O_67  and  C_68
REMARK                            x       y       z     vdW  Elec       q    Type
REMARK                         _______ _______ _______ _____ _____    ______ ____
ROOT
ATOM      1  C   UNL     1     136.409 171.017 190.295  0.00  0.00    +0.000 C 
ATOM      2  C   UNL     1     135.288 171.468 191.224  0.00  0.00    -0.080 C 
ATOM      3  C   UNL     1     134.847 170.781 192.293  0.00  0.00    -0.059 C 
ATOM      4  C   UNL     1     133.658 171.174 193.127  0.00  0.00    +0.079 C 
ATOM      5  C   UNL     1     134.010 171.251 194.619  0.00  0.00    +0.004 C 
ATOM      6  C   UNL     1     134.990 172.369 195.034  0.00  0.00    +0.067 C 
ATOM      7  C   UNL     1     134.544 173.807 194.644  0.00  0.00    +0.022 C 
ATOM      8  C   UNL     1     135.373 174.953 195.319  0.00  0.00    +0.138 C 
ATOM      9  C   UNL     1     136.920 174.945 195.230  0.00  0.00    +0.114 C 
ATOM     10  C   UNL     1     137.388 175.413 193.882  0.00  0.00    -0.029 C 
ATOM     11  C   UNL     1     136.580 176.187 193.137  0.00  0.00    +0.024 C 
ATOM     12  C   UNL     1     135.273 176.672 193.616  0.00  0.00    +0.332 C 
ATOM     13  O   UNL     1     134.617 177.462 192.951  0.00  0.00    -0.246 OA
ATOM     14  O   UNL     1     134.875 176.230 194.832  0.00  0.00    -0.455 OA
ATOM     15  C   UNL     1     138.814 175.134 193.446  0.00  0.00    -0.002 C 
ATOM     16  C   UNL     1     139.897 175.588 194.458  0.00  0.00    +0.066 C 
ATOM     17  C   UNL     1     141.327 175.561 193.847  0.00  0.00    -0.005 C 
ATOM     18  C   UNL     1     141.535 176.357 192.561  0.00  0.00    -0.070 C 
ATOM     19  C   UNL     1     142.066 175.899 191.412  0.00  0.00    -0.062 C 
ATOM     20  C   UNL     1     142.625 174.607 191.086  0.00  0.00    -0.055 C 
ATOM     21  C   UNL     1     142.085 173.407 191.337  0.00  0.00    +0.023 C 
ATOM     22  C   UNL     1     142.696 172.137 190.894  0.00  0.00    +0.332 C 
ATOM     23  O   UNL     1     142.408 171.062 191.398  0.00  0.00    -0.246 OA
ATOM     24  O   UNL     1     143.528 172.338 189.843  0.00  0.00    -0.457 OA
ATOM     25  C   UNL     1     143.849 171.191 189.028  0.00  0.00    +0.114 C 
ATOM     26  C   UNL     1     142.959 171.301 187.738  0.00  0.00    +0.012 C 
ATOM     27  C   UNL     1     141.464 171.331 188.007  0.00  0.00    -0.079 C 
ATOM     28  C   UNL     1     140.768 170.421 188.712  0.00  0.00    -0.059 C 
ATOM     29  C   UNL     1     139.274 170.426 188.977  0.00  0.00    +0.079 C 
ATOM     30  C   UNL     1     139.023 170.996 190.385  0.00  0.00    +0.004 C 
ATOM     31  C   UNL     1     137.696 170.597 191.055  0.00  0.00    +0.064 C 
ATOM     32  H   UNL     1     136.650 171.898 189.685  0.00  0.00    +0.037 HD
ATOM     33  H   UNL     1     134.780 172.385 190.931  0.00  0.00    +0.057 HD
ATOM     34  H   UNL     1     135.319 169.834 192.552  0.00  0.00    +0.059 HD
ATOM     35  H   UNL     1     133.230 172.123 192.788  0.00  0.00    +0.064 HD
ATOM     36  H   UNL     1     133.091 171.323 195.216  0.00  0.00    +0.032 HD
ATOM     37  H   UNL     1     134.422 170.277 194.917  0.00  0.00    +0.032 HD
ATOM     38  H   UNL     1     135.952 172.166 194.550  0.00  0.00    +0.060 HD
ATOM     39  H   UNL     1     134.625 173.910 193.556  0.00  0.00    +0.036 HD
ATOM     40  H   UNL     1     135.129 174.940 196.391  0.00  0.00    +0.077 HD
ATOM     41  H   UNL     1     137.301 175.662 195.969  0.00  0.00    +0.068 HD
ATOM     42  H   UNL     1     136.885 176.587 192.177  0.00  0.00    +0.069 HD
ATOM     43  H   UNL     1     138.979 175.633 192.484  0.00  0.00    +0.034 HD
ATOM     44  H   UNL     1     138.929 174.059 193.248  0.00  0.00    +0.034 HD
ATOM     45  H   UNL     1     139.881 174.891 195.305  0.00  0.00    +0.060 HD
ATOM     46  H   UNL     1     141.608 174.513 193.710  0.00  0.00    +0.034 HD
ATOM     47  H   UNL     1     142.039 175.958 194.579  0.00  0.00    +0.034 HD
ATOM     48  H   UNL     1     142.185 176.605 190.588  0.00  0.00    +0.062 HD
ATOM     49  H   UNL     1     143.548 174.672 190.510  0.00  0.00    +0.062 HD
ATOM     50  H   UNL     1     141.157 173.289 191.882  0.00  0.00    +0.069 HD
ATOM     51  H   UNL     1     143.601 170.254 189.540  0.00  0.00    +0.074 HD
ATOM     52  H   UNL     1     143.177 172.269 187.270  0.00  0.00    +0.038 HD
ATOM     53  H   UNL     1     140.931 172.175 187.571  0.00  0.00    +0.057 HD
ATOM     54  H   UNL     1     141.296 169.585 189.166  0.00  0.00    +0.059 HD
ATOM     55  H   UNL     1     138.907 169.395 188.913  0.00  0.00    +0.064 HD
ATOM     56  H   UNL     1     139.074 172.093 190.349  0.00  0.00    +0.032 HD
ATOM     57  H   UNL     1     139.822 170.654 191.055  0.00  0.00    +0.032 HD
ATOM     58  H   UNL     1     137.698 171.095 192.036  0.00  0.00    +0.060 HD
ENDROOT
BRANCH   1  59
ATOM     59  C   UNL     1     135.840 169.925 189.381  0.00  0.00    -0.057 C 
ATOM     60  H   UNL     1     136.035 170.135 188.323  0.00  0.00    +0.024 HD
ATOM     61  H   UNL     1     136.295 168.954 189.611  0.00  0.00    +0.024 HD
ATOM     62  H   UNL     1     134.761 169.816 189.492  0.00  0.00    +0.024 HD
ENDBRANCH   1  59
BRANCH  26  63
ATOM     63  C   UNL     1     143.247 170.209 186.699  0.00  0.00    -0.056 C 
ATOM     64  H   UNL     1     143.924 169.447 187.101  0.00  0.00    +0.024 HD
ATOM     65  H   UNL     1     143.707 170.628 185.799  0.00  0.00    +0.024 HD
ATOM     66  H   UNL     1     142.330 169.689 186.405  0.00  0.00    +0.024 HD
ENDBRANCH  26  63
BRANCH  18  67
ATOM     67  C   UNL     1     141.159 177.822 192.642  0.00  0.00    -0.043 C 
ATOM     68  H   UNL     1     140.075 177.968 192.706  0.00  0.00    +0.027 HD
ATOM     69  H   UNL     1     141.598 178.291 193.526  0.00  0.00    +0.027 HD
ATOM     70  H   UNL     1     141.499 178.351 191.746  0.00  0.00    +0.027 HD
ENDBRANCH  18  67
BRANCH   7  71
ATOM     71  C   UNL     1     133.056 174.052 194.998  0.00  0.00    -0.057 C 
ATOM     72  H   UNL     1     132.886 174.016 196.078  0.00  0.00    +0.023 HD
ATOM     73  H   UNL     1     132.412 173.297 194.532  0.00  0.00    +0.023 HD
ATOM     74  H   UNL     1     132.710 175.036 194.673  0.00  0.00    +0.023 HD
ENDBRANCH   7  71
BRANCH  31  75
ATOM     75  O   UNL     1     137.709 169.191 191.320  0.00  0.00    -0.391 OA
ATOM     76  H   UNL     1     138.394 168.795 190.754  0.00  0.00    +0.210 HD
ENDBRANCH  31  75
BRANCH  25  77
ATOM     77  C   UNL     1     145.379 171.180 188.729  0.00  0.00    +0.020 C 
ATOM     78  H   UNL     1     145.534 170.375 188.005  0.00  0.00    +0.036 HD
BRANCH  77  79
ATOM     79  C   UNL     1     145.874 172.438 188.006  0.00  0.00    -0.057 C 
ATOM     80  H   UNL     1     146.409 173.104 188.693  0.00  0.00    +0.023 HD
ATOM     81  H   UNL     1     145.028 173.011 187.607  0.00  0.00    +0.023 HD
ATOM     82  H   UNL     1     146.554 172.214 187.181  0.00  0.00    +0.023 HD
ENDBRANCH  77  79
BRANCH  77  83
ATOM     83  C   UNL     1     146.254 170.783 189.968  0.00  0.00    +0.067 C 
ATOM     84  H   UNL     1     145.617 170.332 190.740  0.00  0.00    +0.060 HD
BRANCH  83  85
ATOM     85  C   UNL     1     147.131 171.887 190.638  0.00  0.00    -0.017 C 
ATOM     86  H   UNL     1     147.341 172.662 189.890  0.00  0.00    +0.032 HD
BRANCH  85  87
ATOM     87  C   UNL     1     146.456 172.566 191.831  0.00  0.00    -0.060 C 
ATOM     88  H   UNL     1     145.928 173.470 191.524  0.00  0.00    +0.023 HD
ATOM     89  H   UNL     1     145.745 171.896 192.326  0.00  0.00    +0.023 HD
ATOM     90  H   UNL     1     147.194 172.880 192.577  0.00  0.00    +0.023 HD
ENDBRANCH  85  87
BRANCH  85  91
ATOM     91  C   UNL     1     148.536 171.373 191.065  0.00  0.00    -0.041 C 
ATOM     92  H   UNL     1     149.212 172.235 191.115  0.00  0.00    +0.027 HD
ATOM     93  H   UNL     1     148.952 170.732 190.277  0.00  0.00    +0.027 HD
BRANCH  91  94
ATOM     94  C   UNL     1     148.576 170.615 192.395  0.00  0.00    +0.007 C 
ATOM     95  H   UNL     1     148.708 171.317 193.226  0.00  0.00    +0.034 HD
ATOM     96  H   UNL     1     147.643 170.064 192.560  0.00  0.00    +0.034 HD
BRANCH  94  97
ATOM     97  C   UNL     1     149.724 169.617 192.447  0.00  0.00    +0.139 C 
ATOM     98  O   UNL     1     150.901 169.975 192.503  0.00  0.00    -0.297 OA
BRANCH  97  99
ATOM     99  C   UNL     1     149.327 168.139 192.473  0.00  0.00    +0.041 C 
ATOM    100  H   UNL     1     149.752 167.712 193.391  0.00  0.00    +0.040 HD
BRANCH  99 101
ATOM    101  C   UNL     1     149.988 167.483 191.265  0.00  0.00    -0.053 C 
ATOM    102  H   UNL     1     150.328 166.471 191.503  0.00  0.00    +0.024 HD
ATOM    103  H   UNL     1     150.870 168.044 190.936  0.00  0.00    +0.024 HD
ATOM    104  H   UNL     1     149.302 167.437 190.411  0.00  0.00    +0.024 HD
ENDBRANCH  99 101
BRANCH  99 105
ATOM    105  C   UNL     1     147.791 168.017 192.539  0.00  0.00    +0.071 C 
ATOM    106  H   UNL     1     147.327 168.977 192.278  0.00  0.00    +0.061 HD
BRANCH 105 107
ATOM    107  C   UNL     1     147.205 166.896 191.648  0.00  0.00    -0.006 C 
ATOM    108  H   UNL     1     147.769 166.840 190.707  0.00  0.00    +0.033 HD
ATOM    109  H   UNL     1     147.365 165.923 192.131  0.00  0.00    +0.033 HD
BRANCH 107 110
ATOM    110  C   UNL     1     145.724 167.024 191.404  0.00  0.00    -0.067 C 
ATOM    111  C   UNL     1     144.799 166.394 192.142  0.00  0.00    -0.005 C 
ATOM    112  H   UNL     1     145.439 167.673 190.581  0.00  0.00    +0.059 HD
ATOM    113  H   UNL     1     145.121 165.753 192.967  0.00  0.00    +0.078 HD
BRANCH 111 114
ATOM    114  N   UNL     1     143.427 166.459 191.960  0.00  0.00    -0.284 N 
ATOM    115  C   UNL     1     142.669 167.327 192.744  0.00  0.00    +0.206 C 
ATOM    116  O   UNL     1     143.082 168.066 193.630  0.00  0.00    -0.279 OA
ATOM    117  H   UNL     1     141.593 167.292 192.498  0.00  0.00    +0.126 HD
BRANCH 114 118
ATOM    118  C   UNL     1     142.754 165.637 190.967  0.00  0.00    +0.007 C 
ATOM    119  H   UNL     1     143.448 164.874 190.598  0.00  0.00    +0.043 HD
ATOM    120  H   UNL     1     141.877 165.165 191.420  0.00  0.00    +0.043 HD
ATOM    121  H   UNL     1     142.418 166.239 190.117  0.00  0.00    +0.043 HD
ENDBRANCH 114 118
ENDBRANCH 111 114
ENDBRANCH 107 110
ENDBRANCH 105 107
BRANCH 105 122
ATOM    122  O   UNL     1     147.476 167.691 193.912  0.00  0.00    -0.379 OA
BRANCH 122 123
ATOM    123  C   UNL     1     148.029 166.443 194.318  0.00  0.00    +0.037 C 
ATOM    124  H   UNL     1     147.926 166.301 195.397  0.00  0.00    +0.052 HD
ATOM    125  H   UNL     1     149.083 166.383 194.029  0.00  0.00    +0.052 HD
ATOM    126  H   UNL     1     147.482 165.645 193.807  0.00  0.00    +0.052 HD
ENDBRANCH 122 123
ENDBRANCH 105 122
ENDBRANCH  99 105
ENDBRANCH  97  99
ENDBRANCH  94  97
ENDBRANCH  91  94
ENDBRANCH  85  91
ENDBRANCH  83  85
BRANCH  83 127
ATOM    127  O   UNL     1     147.194 169.780 189.507  0.00  0.00    -0.379 OA
BRANCH 127 128
ATOM    128  C   UNL     1     146.704 168.991 188.428  0.00  0.00    +0.037 C 
ATOM    129  H   UNL     1     145.645 168.791 188.609  0.00  0.00    +0.052 HD
ATOM    130  H   UNL     1     147.231 168.036 188.365  0.00  0.00    +0.052 HD
ATOM    131  H   UNL     1     146.799 169.532 187.483  0.00  0.00    +0.052 HD
ENDBRANCH 127 128
ENDBRANCH  83 127
ENDBRANCH  77  83
ENDBRANCH  25  77
BRANCH   9 132
ATOM    132  O   UNL     1     137.504 173.691 195.535  0.00  0.00    -0.384 OA
ATOM    133  H   UNL     1     136.991 173.326 196.284  0.00  0.00    +0.210 HD
ENDBRANCH   9 132
BRANCH  29 134
ATOM    134  O   UNL     1     138.583 171.253 188.030  0.00  0.00    -0.376 OA
BRANCH 134 135
ATOM    135  C   UNL     1     138.231 170.565 186.835  0.00  0.00    +0.037 C 
ATOM    136  H   UNL     1     137.154 170.391 186.778  0.00  0.00    +0.052 HD
ATOM    137  H   UNL     1     138.564 171.114 185.950  0.00  0.00    +0.052 HD
ATOM    138  H   UNL     1     138.734 169.591 186.846  0.00  0.00    +0.052 HD
ENDBRANCH 134 135
ENDBRANCH  29 134
BRANCH   6 139
ATOM    139  O   UNL     1     135.209 172.377 196.461  0.00  0.00    -0.379 OA
BRANCH 139 140
ATOM    140  C   UNL     1     134.149 171.822 197.233  0.00  0.00    +0.037 C 
ATOM    141  H   UNL     1     134.270 170.734 197.240  0.00  0.00    +0.052 HD
ATOM    142  H   UNL     1     134.200 172.171 198.269  0.00  0.00    +0.052 HD
ATOM    143  H   UNL     1     133.175 172.061 196.793  0.00  0.00    +0.052 HD
ENDBRANCH 139 140
ENDBRANCH   6 139
BRANCH  16 144
ATOM    144  O   UNL     1     139.576 176.901 194.946  0.00  0.00    -0.379 OA
BRANCH 144 145
ATOM    145  C   UNL     1     140.070 177.152 196.256  0.00  0.00    +0.037 C 
ATOM    146  H   UNL     1     140.062 176.209 196.811  0.00  0.00    +0.052 HD
ATOM    147  H   UNL     1     141.100 177.516 196.209  0.00  0.00    +0.052 HD
ATOM    148  H   UNL     1     139.443 177.869 196.791  0.00  0.00    +0.052 HD
ENDBRANCH 144 145
ENDBRANCH  16 144
BRANCH   4 149
ATOM    149  O   UNL     1     132.661 170.146 193.009  0.00  0.00    -0.376 OA
BRANCH 149 150
ATOM    150  C   UNL     1     131.702 170.167 194.061  0.00  0.00    +0.037 C 
ATOM    151  H   UNL     1     131.727 171.158 194.523  0.00  0.00    +0.052 HD
ATOM    152  H   UNL     1     131.951 169.429 194.827  0.00  0.00    +0.052 HD
ATOM    153  H   UNL     1     130.695 169.990 193.675  0.00  0.00    +0.052 HD
ENDBRANCH 149 150
ENDBRANCH   4 149
TORSDOF 33
ENDMDL
MODEL 10
REMARK VINA RESULT:      -5.3      8.057     12.885
REMARK  Name = Sphinxolide B_conf2
REMARK  33 active torsions:
REMARK  status: ('A' for Active; 'I' for Inactive)
REMARK    1  A    between atoms: C_1  and  C_2
REMARK    2  A    between atoms: C_5  and  O_67
REMARK    3  A    between atoms: C_7  and  O_65
REMARK    4  A    between atoms: C_8  and  C_64
REMARK    5  A    between atoms: C_10  and  O_63
REMARK    6  A    between atoms: C_17  and  O_61
REMARK    7  A    between atoms: C_19  and  C_60
REMARK    8  A    between atoms: C_26  and  C_37
REMARK    9  A    between atoms: C_27  and  C_36
REMARK   10  A    between atoms: C_30  and  O_34
REMARK   11  A    between atoms: C_32  and  O_33
REMARK   12  A    between atoms: O_34  and  C_35
REMARK   13  A    between atoms: C_37  and  C_38
REMARK   14  A    between atoms: C_37  and  C_39
REMARK   15  A    between atoms: C_39  and  C_40
REMARK   16  A    between atoms: C_39  and  O_58
REMARK   17  A    between atoms: C_40  and  C_41
REMARK   18  A    between atoms: C_40  and  C_42
REMARK   19  A    between atoms: C_42  and  C_43
REMARK   20  A    between atoms: C_43  and  C_44
REMARK   21  A    between atoms: C_44  and  C_46
REMARK   22  A    between atoms: C_46  and  C_47
REMARK   23  A    between atoms: C_46  and  C_48
REMARK   24  A    between atoms: C_48  and  C_49
REMARK   25  A    between atoms: C_48  and  O_56
REMARK   26  A    between atoms: C_49  and  C_50
REMARK   27  A    between atoms: C_51  and  N_52
REMARK   28  A    between atoms: N_52  and  C_53
REMARK   29  A    between atoms: O_56  and  C_57
REMARK   30  A    between atoms: O_58  and  C_59
REMARK   31  A    between atoms: O_61  and  C_62
REMARK   32  A    between atoms: O_65  and  C_66
REMARK   33  A    between atoms: O_67  and  C_68
REMARK                            x       y       z     vdW  Elec       q    Type
REMARK                         _______ _______ _______ _____ _____    ______ ____
ROOT
ATOM      1  C   UNL     1     148.433 158.164 188.076  0.00  0.00    +0.000 C 
ATOM      2  C   UNL     1     146.916 158.090 187.946  0.00  0.00    -0.080 C 
ATOM      3  C   UNL     1     146.046 158.212 188.965  0.00  0.00    -0.059 C 
ATOM      4  C   UNL     1     144.560 158.011 188.845  0.00  0.00    +0.079 C 
ATOM      5  C   UNL     1     143.778 159.213 189.393  0.00  0.00    +0.004 C 
ATOM      6  C   UNL     1     143.917 160.536 188.610  0.00  0.00    +0.067 C 
ATOM      7  C   UNL     1     143.532 160.448 187.105  0.00  0.00    +0.022 C 
ATOM      8  C   UNL     1     143.385 161.834 186.389  0.00  0.00    +0.138 C 
ATOM      9  C   UNL     1     144.525 162.879 186.480  0.00  0.00    +0.114 C 
ATOM     10  C   UNL     1     145.654 162.529 185.553  0.00  0.00    -0.029 C 
ATOM     11  C   UNL     1     145.414 161.747 184.487  0.00  0.00    +0.024 C 
ATOM     12  C   UNL     1     144.063 161.272 184.134  0.00  0.00    +0.332 C 
ATOM     13  O   UNL     1     143.870 160.652 183.097  0.00  0.00    -0.246 OA
ATOM     14  O   UNL     1     143.066 161.597 184.989  0.00  0.00    -0.455 OA
ATOM     15  C   UNL     1     147.010 163.184 185.745  0.00  0.00    -0.002 C 
ATOM     16  C   UNL     1     146.973 164.732 185.814  0.00  0.00    +0.066 C 
ATOM     17  C   UNL     1     148.391 165.364 185.705  0.00  0.00    -0.005 C 
ATOM     18  C   UNL     1     149.219 164.976 184.484  0.00  0.00    -0.070 C 
ATOM     19  C   UNL     1     150.475 164.491 184.488  0.00  0.00    -0.062 C 
ATOM     20  C   UNL     1     151.389 164.263 185.583  0.00  0.00    -0.055 C 
ATOM     21  C   UNL     1     151.124 163.640 186.739  0.00  0.00    +0.023 C 
ATOM     22  C   UNL     1     152.149 163.383 187.772  0.00  0.00    +0.332 C 
ATOM     23  O   UNL     1     151.860 163.137 188.933  0.00  0.00    -0.246 OA
ATOM     24  O   UNL     1     153.394 163.391 187.235  0.00  0.00    -0.457 OA
ATOM     25  C   UNL     1     154.439 162.736 187.986  0.00  0.00    +0.114 C 
ATOM     26  C   UNL     1     154.666 161.339 187.305  0.00  0.00    +0.012 C 
ATOM     27  C   UNL     1     153.434 160.450 187.269  0.00  0.00    -0.079 C 
ATOM     28  C   UNL     1     152.685 160.093 188.329  0.00  0.00    -0.059 C 
ATOM     29  C   UNL     1     151.462 159.194 188.314  0.00  0.00    +0.079 C 
ATOM     30  C   UNL     1     150.201 160.075 188.331  0.00  0.00    +0.004 C 
ATOM     31  C   UNL     1     148.915 159.414 188.861  0.00  0.00    +0.064 C 
ATOM     32  H   UNL     1     148.807 158.248 187.047  0.00  0.00    +0.037 HD
ATOM     33  H   UNL     1     146.545 157.847 186.952  0.00  0.00    +0.057 HD
ATOM     34  H   UNL     1     146.423 158.398 189.970  0.00  0.00    +0.059 HD
ATOM     35  H   UNL     1     144.268 157.808 187.809  0.00  0.00    +0.064 HD
ATOM     36  H   UNL     1     142.715 158.951 189.494  0.00  0.00    +0.032 HD
ATOM     37  H   UNL     1     144.092 159.371 190.434  0.00  0.00    +0.032 HD
ATOM     38  H   UNL     1     144.963 160.853 188.678  0.00  0.00    +0.060 HD
ATOM     39  H   UNL     1     144.301 159.865 186.586  0.00  0.00    +0.036 HD
ATOM     40  H   UNL     1     142.492 162.320 186.807  0.00  0.00    +0.077 HD
ATOM     41  H   UNL     1     144.122 163.844 186.146  0.00  0.00    +0.068 HD
ATOM     42  H   UNL     1     146.182 161.501 183.764  0.00  0.00    +0.069 HD
ATOM     43  H   UNL     1     147.659 162.870 184.919  0.00  0.00    +0.034 HD
ATOM     44  H   UNL     1     147.477 162.790 186.658  0.00  0.00    +0.034 HD
ATOM     45  H   UNL     1     146.553 165.017 186.786  0.00  0.00    +0.060 HD
ATOM     46  H   UNL     1     148.925 165.134 186.632  0.00  0.00    +0.034 HD
ATOM     47  H   UNL     1     148.298 166.456 185.688  0.00  0.00    +0.034 HD
ATOM     48  H   UNL     1     150.950 164.297 183.524  0.00  0.00    +0.062 HD
ATOM     49  H   UNL     1     152.408 164.585 185.366  0.00  0.00    +0.062 HD
ATOM     50  H   UNL     1     150.136 163.278 186.992  0.00  0.00    +0.069 HD
ATOM     51  H   UNL     1     154.140 162.570 189.027  0.00  0.00    +0.074 HD
ATOM     52  H   UNL     1     154.908 161.522 186.251  0.00  0.00    +0.038 HD
ATOM     53  H   UNL     1     153.159 160.078 186.284  0.00  0.00    +0.057 HD
ATOM     54  H   UNL     1     152.942 160.475 189.313  0.00  0.00    +0.059 HD
ATOM     55  H   UNL     1     151.492 158.554 189.204  0.00  0.00    +0.064 HD
ATOM     56  H   UNL     1     150.003 160.450 187.318  0.00  0.00    +0.032 HD
ATOM     57  H   UNL     1     150.384 160.948 188.971  0.00  0.00    +0.032 HD
ATOM     58  H   UNL     1     148.135 160.188 188.795  0.00  0.00    +0.060 HD
ENDROOT
BRANCH   1  59
ATOM     59  C   UNL     1     148.911 156.833 188.669  0.00  0.00    -0.057 C 
ATOM     60  H   UNL     1     149.663 156.350 188.034  0.00  0.00    +0.024 HD
ATOM     61  H   UNL     1     149.369 156.991 189.653  0.00  0.00    +0.024 HD
ATOM     62  H   UNL     1     148.096 156.122 188.797  0.00  0.00    +0.024 HD
ENDBRANCH   1  59
BRANCH  26  63
ATOM     63  C   UNL     1     155.826 160.541 187.914  0.00  0.00    -0.056 C 
ATOM     64  H   UNL     1     155.688 160.399 188.992  0.00  0.00    +0.024 HD
ATOM     65  H   UNL     1     156.783 161.051 187.762  0.00  0.00    +0.024 HD
ATOM     66  H   UNL     1     155.896 159.542 187.473  0.00  0.00    +0.024 HD
ENDBRANCH  26  63
BRANCH  18  67
ATOM     67  C   UNL     1     148.558 165.239 183.147  0.00  0.00    -0.043 C 
ATOM     68  H   UNL     1     147.603 165.765 183.254  0.00  0.00    +0.027 HD
ATOM     69  H   UNL     1     149.194 165.859 182.510  0.00  0.00    +0.027 HD
ATOM     70  H   UNL     1     148.346 164.295 182.635  0.00  0.00    +0.027 HD
ENDBRANCH  18  67
BRANCH   7  71
ATOM     71  C   UNL     1     142.197 159.688 186.908  0.00  0.00    -0.057 C 
ATOM     72  H   UNL     1     141.564 159.744 187.798  0.00  0.00    +0.023 HD
ATOM     73  H   UNL     1     142.377 158.628 186.691  0.00  0.00    +0.023 HD
ATOM     74  H   UNL     1     141.603 160.102 186.090  0.00  0.00    +0.023 HD
ENDBRANCH   7  71
BRANCH  31  75
ATOM     75  O   UNL     1     149.075 159.125 190.253  0.00  0.00    -0.391 OA
ATOM     76  H   UNL     1     148.187 159.126 190.653  0.00  0.00    +0.210 HD
ENDBRANCH  31  75
BRANCH  25  77
ATOM     77  C   UNL     1     155.711 163.638 187.994  0.00  0.00    +0.020 C 
ATOM     78  H   UNL     1     156.458 163.102 187.401  0.00  0.00    +0.036 HD
BRANCH  77  79
ATOM     79  C   UNL     1     155.527 164.970 187.258  0.00  0.00    -0.057 C 
ATOM     80  H   UNL     1     155.948 164.924 186.248  0.00  0.00    +0.023 HD
ATOM     81  H   UNL     1     156.053 165.776 187.783  0.00  0.00    +0.023 HD
ATOM     82  H   UNL     1     154.478 165.256 187.156  0.00  0.00    +0.023 HD
ENDBRANCH  77  79
BRANCH  77  83
ATOM     83  C   UNL     1     156.358 163.790 189.415  0.00  0.00    +0.067 C 
ATOM     84  H   UNL     1     156.327 162.826 189.940  0.00  0.00    +0.060 HD
BRANCH  83  85
ATOM     85  C   UNL     1     155.796 164.889 190.370  0.00  0.00    -0.017 C 
ATOM     86  H   UNL     1     156.021 164.595 191.404  0.00  0.00    +0.032 HD
BRANCH  85  87
ATOM     87  C   UNL     1     156.407 166.272 190.139  0.00  0.00    -0.060 C 
ATOM     88  H   UNL     1     155.782 166.874 189.477  0.00  0.00    +0.023 HD
ATOM     89  H   UNL     1     156.544 166.814 191.081  0.00  0.00    +0.023 HD
ATOM     90  H   UNL     1     157.385 166.195 189.652  0.00  0.00    +0.023 HD
ENDBRANCH  85  87
BRANCH  85  91
ATOM     91  C   UNL     1     154.245 164.997 190.329  0.00  0.00    -0.041 C 
ATOM     92  H   UNL     1     153.829 164.063 190.726  0.00  0.00    +0.027 HD
ATOM     93  H   UNL     1     153.903 165.038 189.287  0.00  0.00    +0.027 HD
BRANCH  91  94
ATOM     94  C   UNL     1     153.654 166.185 191.092  0.00  0.00    +0.007 C 
ATOM     95  H   UNL     1     153.025 165.829 191.915  0.00  0.00    +0.034 HD
ATOM     96  H   UNL     1     154.447 166.812 191.516  0.00  0.00    +0.034 HD
BRANCH  94  97
ATOM     97  C   UNL     1     152.792 167.064 190.198  0.00  0.00    +0.139 C 
ATOM     98  O   UNL     1     153.133 167.369 189.054  0.00  0.00    -0.297 OA
BRANCH  97  99
ATOM     99  C   UNL     1     151.452 167.511 190.787  0.00  0.00    +0.041 C 
ATOM    100  H   UNL     1     150.960 168.130 190.025  0.00  0.00    +0.040 HD
BRANCH  99 101
ATOM    101  C   UNL     1     151.769 168.374 192.004  0.00  0.00    -0.053 C 
ATOM    102  H   UNL     1     152.563 169.092 191.782  0.00  0.00    +0.024 HD
ATOM    103  H   UNL     1     152.118 167.765 192.846  0.00  0.00    +0.024 HD
ATOM    104  H   UNL     1     150.882 168.918 192.349  0.00  0.00    +0.024 HD
ENDBRANCH  99 101
BRANCH  99 105
ATOM    105  C   UNL     1     150.570 166.275 191.059  0.00  0.00    +0.071 C 
ATOM    106  H   UNL     1     151.167 165.484 191.531  0.00  0.00    +0.061 HD
BRANCH 105 107
ATOM    107  C   UNL     1     149.319 166.567 191.922  0.00  0.00    -0.006 C 
ATOM    108  H   UNL     1     149.239 167.648 192.101  0.00  0.00    +0.033 HD
ATOM    109  H   UNL     1     148.415 166.307 191.356  0.00  0.00    +0.033 HD
BRANCH 107 110
ATOM    110  C   UNL     1     149.269 165.783 193.208  0.00  0.00    -0.067 C 
ATOM    111  C   UNL     1     149.815 166.214 194.354  0.00  0.00    -0.005 C 
ATOM    112  H   UNL     1     148.750 164.831 193.155  0.00  0.00    +0.059 HD
ATOM    113  H   UNL     1     150.323 167.181 194.373  0.00  0.00    +0.078 HD
BRANCH 111 114
ATOM    114  N   UNL     1     149.815 165.536 195.562  0.00  0.00    -0.284 N 
ATOM    115  C   UNL     1     148.797 165.772 196.485  0.00  0.00    +0.206 C 
ATOM    116  O   UNL     1     147.862 166.555 196.362  0.00  0.00    -0.279 OA
ATOM    117  H   UNL     1     148.906 165.166 197.401  0.00  0.00    +0.126 HD
BRANCH 114 118
ATOM    118  C   UNL     1     150.859 164.580 195.895  0.00  0.00    +0.007 C 
ATOM    119  H   UNL     1     151.805 164.907 195.449  0.00  0.00    +0.043 HD
ATOM    120  H   UNL     1     150.957 164.512 196.983  0.00  0.00    +0.043 HD
ATOM    121  H   UNL     1     150.621 163.583 195.510  0.00  0.00    +0.043 HD
ENDBRANCH 114 118
ENDBRANCH 111 114
ENDBRANCH 107 110
ENDBRANCH 105 107
BRANCH 105 122
ATOM    122  O   UNL     1     150.110 165.820 189.766  0.00  0.00    -0.379 OA
BRANCH 122 123
ATOM    123  C   UNL     1     148.958 166.526 189.316  0.00  0.00    +0.037 C 
ATOM    124  H   UNL     1     148.049 165.945 189.489  0.00  0.00    +0.052 HD
ATOM    125  H   UNL     1     149.053 166.769 188.253  0.00  0.00    +0.052 HD
ATOM    126  H   UNL     1     148.888 167.460 189.882  0.00  0.00    +0.052 HD
ENDBRANCH 122 123
ENDBRANCH 105 122
ENDBRANCH  99 105
ENDBRANCH  97  99
ENDBRANCH  94  97
ENDBRANCH  91  94
ENDBRANCH  85  91
ENDBRANCH  83  85
BRANCH  83 127
ATOM    127  O   UNL     1     157.747 164.148 189.201  0.00  0.00    -0.379 OA
BRANCH 127 128
ATOM    128  C   UNL     1     158.534 163.090 188.665  0.00  0.00    +0.037 C 
ATOM    129  H   UNL     1     158.785 163.345 187.632  0.00  0.00    +0.052 HD
ATOM    130  H   UNL     1     157.981 162.147 188.663  0.00  0.00    +0.052 HD
ATOM    131  H   UNL     1     159.462 162.976 189.232  0.00  0.00    +0.052 HD
ENDBRANCH 127 128
ENDBRANCH  83 127
ENDBRANCH  77  83
ENDBRANCH  25  77
BRANCH   9 132
ATOM    132  O   UNL     1     145.021 163.071 187.793  0.00  0.00    -0.384 OA
ATOM    133  H   UNL     1     145.526 162.263 188.015  0.00  0.00    +0.210 HD
ENDBRANCH   9 132
BRANCH  29 134
ATOM    134  O   UNL     1     151.427 158.386 187.129  0.00  0.00    -0.376 OA
BRANCH 134 135
ATOM    135  C   UNL     1     152.151 157.167 187.258  0.00  0.00    +0.037 C 
ATOM    136  H   UNL     1     152.040 156.542 186.370  0.00  0.00    +0.052 HD
ATOM    137  H   UNL     1     153.211 157.356 187.448  0.00  0.00    +0.052 HD
ATOM    138  H   UNL     1     151.739 156.620 188.114  0.00  0.00    +0.052 HD
ENDBRANCH 134 135
ENDBRANCH  29 134
BRANCH   6 139
ATOM    139  O   UNL     1     143.102 161.578 189.185  0.00  0.00    -0.379 OA
BRANCH 139 140
ATOM    140  C   UNL     1     142.114 161.128 190.108  0.00  0.00    +0.037 C 
ATOM    141  H   UNL     1     142.630 160.651 190.948  0.00  0.00    +0.052 HD
ATOM    142  H   UNL     1     141.540 161.971 190.503  0.00  0.00    +0.052 HD
ATOM    143  H   UNL     1     141.451 160.391 189.643  0.00  0.00    +0.052 HD
ENDBRANCH 139 140
ENDBRANCH   6 139
BRANCH  16 144
ATOM    144  O   UNL     1     146.110 165.237 184.782  0.00  0.00    -0.379 OA
BRANCH 144 145
ATOM    145  C   UNL     1     145.433 166.433 185.149  0.00  0.00    +0.037 C 
ATOM    146  H   UNL     1     144.667 166.637 184.395  0.00  0.00    +0.052 HD
ATOM    147  H   UNL     1     144.940 166.307 186.116  0.00  0.00    +0.052 HD
ATOM    148  H   UNL     1     146.115 167.286 185.184  0.00  0.00    +0.052 HD
ENDBRANCH 144 145
ENDBRANCH  16 144
BRANCH   4 149
ATOM    149  O   UNL     1     144.186 156.890 189.662  0.00  0.00    -0.376 OA
BRANCH 149 150
ATOM    150  C   UNL     1     143.439 157.258 190.816  0.00  0.00    +0.037 C 
ATOM    151  H   UNL     1     144.022 157.991 191.379  0.00  0.00    +0.052 HD
ATOM    152  H   UNL     1     143.268 156.392 191.460  0.00  0.00    +0.052 HD
ATOM    153  H   UNL     1     142.486 157.716 190.534  0.00  0.00    +0.052 HD
ENDBRANCH 149 150
ENDBRANCH   4 149
TORSDOF 33
ENDMDL
