MODEL 1
REMARK VINA RESULT:      -4.7      0.000      0.000
REMARK  Name = Sphinxolide B_conf3
REMARK  33 active torsions:
REMARK  status: ('A' for Active; 'I' for Inactive)
REMARK    1  A    between atoms: C_1  and  C_2
REMARK    2  A    between atoms: C_5  and  O_67
REMARK    3  A    between atoms: C_7  and  O_65
REMARK    4  A    between atoms: C_8  and  C_64
REMARK    5  A    between atoms: C_10  and  O_63
REMARK    6  A    between atoms: C_17  and  O_61
REMARK    7  A    between atoms: C_19  and  C_60
REMARK    8  A    between atoms: C_26  and  C_37
REMARK    9  A    between atoms: C_27  and  C_36
REMARK   10  A    between atoms: C_30  and  O_34
REMARK   11  A    between atoms: C_32  and  O_33
REMARK   12  A    between atoms: O_34  and  C_35
REMARK   13  A    between atoms: C_37  and  C_38
REMARK   14  A    between atoms: C_37  and  C_39
REMARK   15  A    between atoms: C_39  and  C_40
REMARK   16  A    between atoms: C_39  and  O_58
REMARK   17  A    between atoms: C_40  and  C_41
REMARK   18  A    between atoms: C_40  and  C_42
REMARK   19  A    between atoms: C_42  and  C_43
REMARK   20  A    between atoms: C_43  and  C_44
REMARK   21  A    between atoms: C_44  and  C_46
REMARK   22  A    between atoms: C_46  and  C_47
REMARK   23  A    between atoms: C_46  and  C_48
REMARK   24  A    between atoms: C_48  and  C_49
REMARK   25  A    between atoms: C_48  and  O_56
REMARK   26  A    between atoms: C_49  and  C_50
REMARK   27  A    between atoms: C_51  and  N_52
REMARK   28  A    between atoms: N_52  and  C_53
REMARK   29  A    between atoms: O_56  and  C_57
REMARK   30  A    between atoms: O_58  and  C_59
REMARK   31  A    between atoms: O_61  and  C_62
REMARK   32  A    between atoms: O_65  and  C_66
REMARK   33  A    between atoms: O_67  and  C_68
REMARK                            x       y       z     vdW  Elec       q    Type
REMARK                         _______ _______ _______ _____ _____    ______ ____
ROOT
ATOM      1  C   UNL     1     148.626 166.408 185.966  0.00  0.00    +0.000 C 
ATOM      2  C   UNL     1     147.823 165.254 186.520  0.00  0.00    -0.080 C 
ATOM      3  C   UNL     1     147.136 164.395 185.748  0.00  0.00    -0.059 C 
ATOM      4  C   UNL     1     146.394 163.179 186.245  0.00  0.00    +0.079 C 
ATOM      5  C   UNL     1     146.890 161.889 185.556  0.00  0.00    +0.004 C 
ATOM      6  C   UNL     1     148.091 161.163 186.205  0.00  0.00    +0.067 C 
ATOM      7  C   UNL     1     149.398 162.017 186.233  0.00  0.00    +0.022 C 
ATOM      8  C   UNL     1     150.585 161.260 185.550  0.00  0.00    +0.138 C 
ATOM      9  C   UNL     1     151.784 162.125 185.102  0.00  0.00    +0.114 C 
ATOM     10  C   UNL     1     152.660 162.468 186.278  0.00  0.00    -0.029 C 
ATOM     11  C   UNL     1     152.784 161.532 187.242  0.00  0.00    +0.024 C 
ATOM     12  C   UNL     1     152.062 160.243 187.203  0.00  0.00    +0.332 C 
ATOM     13  O   UNL     1     152.379 159.324 187.947  0.00  0.00    -0.246 OA
ATOM     14  O   UNL     1     151.034 160.128 186.323  0.00  0.00    -0.455 OA
ATOM     15  C   UNL     1     153.380 163.805 186.241  0.00  0.00    -0.002 C 
ATOM     16  C   UNL     1     154.264 164.275 187.423  0.00  0.00    +0.066 C 
ATOM     17  C   UNL     1     153.446 164.621 188.703  0.00  0.00    -0.005 C 
ATOM     18  C   UNL     1     154.188 165.510 189.702  0.00  0.00    -0.070 C 
ATOM     19  C   UNL     1     153.666 166.535 190.408  0.00  0.00    -0.062 C 
ATOM     20  C   UNL     1     152.296 167.008 190.485  0.00  0.00    -0.055 C 
ATOM     21  C   UNL     1     151.979 167.985 191.351  0.00  0.00    +0.023 C 
ATOM     22  C   UNL     1     150.635 168.457 191.732  0.00  0.00    +0.332 C 
ATOM     23  O   UNL     1     150.478 169.098 192.762  0.00  0.00    -0.246 OA
ATOM     24  O   UNL     1     149.658 168.052 190.887  0.00  0.00    -0.457 OA
ATOM     25  C   UNL     1     148.299 168.145 191.409  0.00  0.00    +0.114 C 
ATOM     26  C   UNL     1     147.560 169.408 190.868  0.00  0.00    +0.012 C 
ATOM     27  C   UNL     1     147.539 169.500 189.358  0.00  0.00    -0.079 C 
ATOM     28  C   UNL     1     146.437 169.385 188.598  0.00  0.00    -0.059 C 
ATOM     29  C   UNL     1     146.410 169.473 187.095  0.00  0.00    +0.079 C 
ATOM     30  C   UNL     1     146.772 168.134 186.428  0.00  0.00    +0.004 C 
ATOM     31  C   UNL     1     148.247 167.762 186.604  0.00  0.00    +0.064 C 
ATOM     32  H   UNL     1     148.480 166.478 184.878  0.00  0.00    +0.037 HD
ATOM     33  H   UNL     1     147.848 165.110 187.598  0.00  0.00    +0.057 HD
ATOM     34  H   UNL     1     147.105 164.554 184.670  0.00  0.00    +0.059 HD
ATOM     35  H   UNL     1     146.451 163.072 187.334  0.00  0.00    +0.064 HD
ATOM     36  H   UNL     1     147.113 162.087 184.498  0.00  0.00    +0.032 HD
ATOM     37  H   UNL     1     146.051 161.179 185.547  0.00  0.00    +0.032 HD
ATOM     38  H   UNL     1     148.251 160.265 185.591  0.00  0.00    +0.060 HD
ATOM     39  H   UNL     1     149.228 162.886 185.589  0.00  0.00    +0.036 HD
ATOM     40  H   UNL     1     150.180 160.836 184.619  0.00  0.00    +0.077 HD
ATOM     41  H   UNL     1     152.408 161.550 184.403  0.00  0.00    +0.068 HD
ATOM     42  H   UNL     1     153.439 161.641 188.096  0.00  0.00    +0.069 HD
ATOM     43  H   UNL     1     154.006 163.798 185.338  0.00  0.00    +0.034 HD
ATOM     44  H   UNL     1     152.635 164.592 186.083  0.00  0.00    +0.034 HD
ATOM     45  H   UNL     1     154.774 165.196 187.102  0.00  0.00    +0.060 HD
ATOM     46  H   UNL     1     152.515 165.113 188.400  0.00  0.00    +0.034 HD
ATOM     47  H   UNL     1     153.177 163.699 189.231  0.00  0.00    +0.034 HD
ATOM     48  H   UNL     1     154.351 167.064 191.074  0.00  0.00    +0.062 HD
ATOM     49  H   UNL     1     151.530 166.505 189.908  0.00  0.00    +0.062 HD
ATOM     50  H   UNL     1     152.750 168.452 191.958  0.00  0.00    +0.069 HD
ATOM     51  H   UNL     1     148.357 168.251 192.497  0.00  0.00    +0.074 HD
ATOM     52  H   UNL     1     146.530 169.385 191.242  0.00  0.00    +0.038 HD
ATOM     53  H   UNL     1     148.502 169.679 188.878  0.00  0.00    +0.057 HD
ATOM     54  H   UNL     1     145.473 169.224 189.072  0.00  0.00    +0.059 HD
ATOM     55  H   UNL     1     147.076 170.279 186.767  0.00  0.00    +0.064 HD
ATOM     56  H   UNL     1     146.548 168.198 185.355  0.00  0.00    +0.032 HD
ATOM     57  H   UNL     1     146.119 167.348 186.821  0.00  0.00    +0.032 HD
ATOM     58  H   UNL     1     148.502 167.708 187.667  0.00  0.00    +0.060 HD
ENDROOT
BRANCH   1  59
ATOM     59  C   UNL     1     150.118 166.126 186.195  0.00  0.00    -0.057 C 
ATOM     60  H   UNL     1     150.287 165.613 187.148  0.00  0.00    +0.024 HD
ATOM     61  H   UNL     1     150.515 165.494 185.401  0.00  0.00    +0.024 HD
ATOM     62  H   UNL     1     150.702 167.051 186.202  0.00  0.00    +0.024 HD
ENDBRANCH   1  59
BRANCH  26  63
ATOM     63  C   UNL     1     148.174 170.706 191.410  0.00  0.00    -0.056 C 
ATOM     64  H   UNL     1     149.236 170.778 191.141  0.00  0.00    +0.024 HD
ATOM     65  H   UNL     1     147.669 171.578 190.983  0.00  0.00    +0.024 HD
ATOM     66  H   UNL     1     148.107 170.769 192.501  0.00  0.00    +0.024 HD
ENDBRANCH  26  63
BRANCH  18  67
ATOM     67  C   UNL     1     155.637 165.149 189.959  0.00  0.00    -0.043 C 
ATOM     68  H   UNL     1     156.258 166.053 189.965  0.00  0.00    +0.027 HD
ATOM     69  H   UNL     1     155.742 164.631 190.917  0.00  0.00    +0.027 HD
ATOM     70  H   UNL     1     156.049 164.493 189.185  0.00  0.00    +0.027 HD
ENDBRANCH  18  67
BRANCH   7  71
ATOM     71  C   UNL     1     149.707 162.540 187.642  0.00  0.00    -0.057 C 
ATOM     72  H   UNL     1     150.052 161.739 188.301  0.00  0.00    +0.023 HD
ATOM     73  H   UNL     1     150.494 163.301 187.634  0.00  0.00    +0.023 HD
ATOM     74  H   UNL     1     148.819 162.966 188.116  0.00  0.00    +0.023 HD
ENDBRANCH   7  71
BRANCH  31  75
ATOM     75  O   UNL     1     149.053 168.799 186.031  0.00  0.00    -0.391 OA
ATOM     76  H   UNL     1     149.652 168.388 185.382  0.00  0.00    +0.210 HD
ENDBRANCH  31  75
BRANCH  25  77
ATOM     77  C   UNL     1     147.583 166.788 191.112  0.00  0.00    +0.020 C 
ATOM     78  H   UNL     1     146.586 167.013 190.722  0.00  0.00    +0.036 HD
BRANCH  77  79
ATOM     79  C   UNL     1     148.274 166.043 189.948  0.00  0.00    -0.057 C 
ATOM     80  H   UNL     1     149.057 166.655 189.489  0.00  0.00    +0.023 HD
ATOM     81  H   UNL     1     147.551 165.773 189.172  0.00  0.00    +0.023 HD
ATOM     82  H   UNL     1     148.723 165.105 190.290  0.00  0.00    +0.023 HD
ENDBRANCH  77  79
BRANCH  77  83
ATOM     83  C   UNL     1     147.470 165.804 192.331  0.00  0.00    +0.067 C 
ATOM     84  H   UNL     1     147.831 164.813 192.025  0.00  0.00    +0.060 HD
BRANCH  83  85
ATOM     85  C   UNL     1     146.013 165.583 192.830  0.00  0.00    -0.017 C 
ATOM     86  H   UNL     1     145.612 164.704 192.319  0.00  0.00    +0.032 HD
BRANCH  85  87
ATOM     87  C   UNL     1     145.959 165.286 194.332  0.00  0.00    -0.060 C 
ATOM     88  H   UNL     1     146.965 165.165 194.745  0.00  0.00    +0.023 HD
ATOM     89  H   UNL     1     145.493 166.107 194.885  0.00  0.00    +0.023 HD
ATOM     90  H   UNL     1     145.382 164.381 194.545  0.00  0.00    +0.023 HD
ENDBRANCH  85  87
BRANCH  85  91
ATOM     91  C   UNL     1     145.032 166.727 192.447  0.00  0.00    -0.041 C 
ATOM     92  H   UNL     1     145.395 167.220 191.536  0.00  0.00    +0.027 HD
ATOM     93  H   UNL     1     145.093 167.493 193.233  0.00  0.00    +0.027 HD
BRANCH  91  94
ATOM     94  C   UNL     1     143.554 166.364 192.284  0.00  0.00    +0.007 C 
ATOM     95  H   UNL     1     143.091 166.309 193.278  0.00  0.00    +0.034 HD
ATOM     96  H   UNL     1     143.452 165.374 191.835  0.00  0.00    +0.034 HD
BRANCH  94  97
ATOM     97  C   UNL     1     142.727 167.361 191.491  0.00  0.00    +0.139 C 
ATOM     98  O   UNL     1     141.516 167.491 191.674  0.00  0.00    -0.297 OA
BRANCH  97  99
ATOM     99  C   UNL     1     143.467 168.162 190.426  0.00  0.00    +0.041 C 
ATOM    100  H   UNL     1     144.527 168.168 190.708  0.00  0.00    +0.040 HD
BRANCH  99 101
ATOM    101  C   UNL     1     143.003 169.615 190.458  0.00  0.00    -0.053 C 
ATOM    102  H   UNL     1     142.857 169.944 191.492  0.00  0.00    +0.024 HD
ATOM    103  H   UNL     1     142.047 169.753 189.944  0.00  0.00    +0.024 HD
ATOM    104  H   UNL     1     143.745 170.275 189.997  0.00  0.00    +0.024 HD
ENDBRANCH  99 101
BRANCH  99 105
ATOM    105  C   UNL     1     143.346 167.471 189.050  0.00  0.00    +0.071 C 
ATOM    106  H   UNL     1     143.452 168.224 188.256  0.00  0.00    +0.061 HD
BRANCH 105 107
ATOM    107  C   UNL     1     144.388 166.357 188.809  0.00  0.00    -0.006 C 
ATOM    108  H   UNL     1     145.084 166.297 189.654  0.00  0.00    +0.033 HD
ATOM    109  H   UNL     1     144.980 166.566 187.912  0.00  0.00    +0.033 HD
BRANCH 107 110
ATOM    110  C   UNL     1     143.722 165.005 188.684  0.00  0.00    -0.067 C 
ATOM    111  C   UNL     1     144.225 163.889 189.229  0.00  0.00    -0.005 C 
ATOM    112  H   UNL     1     142.802 165.011 188.107  0.00  0.00    +0.059 HD
ATOM    113  H   UNL     1     145.156 163.961 189.791  0.00  0.00    +0.078 HD
BRANCH 111 114
ATOM    114  N   UNL     1     143.697 162.608 189.160  0.00  0.00    -0.284 N 
ATOM    115  C   UNL     1     142.343 162.298 189.132  0.00  0.00    +0.206 C 
ATOM    116  O   UNL     1     141.864 161.173 189.045  0.00  0.00    -0.279 OA
ATOM    117  H   UNL     1     141.684 163.176 189.187  0.00  0.00    +0.126 HD
BRANCH 114 118
ATOM    118  C   UNL     1     144.648 161.504 189.094  0.00  0.00    +0.007 C 
ATOM    119  H   UNL     1     145.653 161.889 189.298  0.00  0.00    +0.043 HD
ATOM    120  H   UNL     1     144.655 161.023 188.111  0.00  0.00    +0.043 HD
ATOM    121  H   UNL     1     144.383 160.753 189.844  0.00  0.00    +0.043 HD
ENDBRANCH 114 118
ENDBRANCH 111 114
ENDBRANCH 107 110
ENDBRANCH 105 107
BRANCH 105 122
ATOM    122  O   UNL     1     142.042 166.859 188.954  0.00  0.00    -0.379 OA
BRANCH 122 123
ATOM    123  C   UNL     1     141.196 167.477 187.994  0.00  0.00    +0.037 C 
ATOM    124  H   UNL     1     140.446 168.102 188.480  0.00  0.00    +0.052 HD
ATOM    125  H   UNL     1     140.686 166.693 187.432  0.00  0.00    +0.052 HD
ATOM    126  H   UNL     1     141.784 168.074 187.292  0.00  0.00    +0.052 HD
ENDBRANCH 122 123
ENDBRANCH 105 122
ENDBRANCH  99 105
ENDBRANCH  97  99
ENDBRANCH  94  97
ENDBRANCH  91  94
ENDBRANCH  85  91
ENDBRANCH  83  85
BRANCH  83 127
ATOM    127  O   UNL     1     148.250 166.240 193.452  0.00  0.00    -0.379 OA
BRANCH 127 128
ATOM    128  C   UNL     1     149.459 165.510 193.638  0.00  0.00    +0.037 C 
ATOM    129  H   UNL     1     150.138 165.640 192.792  0.00  0.00    +0.052 HD
ATOM    130  H   UNL     1     149.200 164.448 193.718  0.00  0.00    +0.052 HD
ATOM    131  H   UNL     1     149.954 165.805 194.565  0.00  0.00    +0.052 HD
ENDBRANCH 127 128
ENDBRANCH  83 127
ENDBRANCH  77  83
ENDBRANCH  25  77
BRANCH   9 132
ATOM    132  O   UNL     1     151.362 163.294 184.416  0.00  0.00    -0.384 OA
ATOM    133  H   UNL     1     150.545 163.071 183.935  0.00  0.00    +0.210 HD
ENDBRANCH   9 132
BRANCH  29 134
ATOM    134  O   UNL     1     145.055 169.807 186.753  0.00  0.00    -0.376 OA
BRANCH 134 135
ATOM    135  C   UNL     1     144.600 170.997 187.381  0.00  0.00    +0.037 C 
ATOM    136  H   UNL     1     143.974 171.575 186.692  0.00  0.00    +0.052 HD
ATOM    137  H   UNL     1     145.473 171.601 187.647  0.00  0.00    +0.052 HD
ATOM    138  H   UNL     1     144.042 170.774 188.295  0.00  0.00    +0.052 HD
ENDBRANCH 134 135
ENDBRANCH  29 134
BRANCH   6 139
ATOM    139  O   UNL     1     147.663 160.770 187.516  0.00  0.00    -0.379 OA
BRANCH 139 140
ATOM    140  C   UNL     1     147.720 159.363 187.727  0.00  0.00    +0.037 C 
ATOM    141  H   UNL     1     148.758 159.013 187.711  0.00  0.00    +0.052 HD
ATOM    142  H   UNL     1     147.176 158.876 186.911  0.00  0.00    +0.052 HD
ATOM    143  H   UNL     1     147.241 159.090 188.672  0.00  0.00    +0.052 HD
ENDBRANCH 139 140
ENDBRANCH   6 139
BRANCH  16 144
ATOM    144  O   UNL     1     155.257 163.289 187.753  0.00  0.00    -0.379 OA
BRANCH 144 145
ATOM    145  C   UNL     1     156.331 163.219 186.827  0.00  0.00    +0.037 C 
ATOM    146  H   UNL     1     156.452 164.166 186.298  0.00  0.00    +0.052 HD
ATOM    147  H   UNL     1     157.263 162.937 187.323  0.00  0.00    +0.052 HD
ATOM    148  H   UNL     1     156.087 162.451 186.087  0.00  0.00    +0.052 HD
ENDBRANCH 144 145
ENDBRANCH  16 144
BRANCH   4 149
ATOM    149  O   UNL     1     145.026 163.357 185.841  0.00  0.00    -0.376 OA
BRANCH 149 150
ATOM    150  C   UNL     1     144.414 162.137 185.441  0.00  0.00    +0.037 C 
ATOM    151  H   UNL     1     143.336 162.219 185.616  0.00  0.00    +0.052 HD
ATOM    152  H   UNL     1     144.576 161.958 184.373  0.00  0.00    +0.052 HD
ATOM    153  H   UNL     1     144.795 161.296 186.030  0.00  0.00    +0.052 HD
ENDBRANCH 149 150
ENDBRANCH   4 149
TORSDOF 33
ENDMDL
MODEL 2
REMARK VINA RESULT:      -4.7      3.989     10.832
REMARK  Name = Sphinxolide B_conf3
REMARK  33 active torsions:
REMARK  status: ('A' for Active; 'I' for Inactive)
REMARK    1  A    between atoms: C_1  and  C_2
REMARK    2  A    between atoms: C_5  and  O_67
REMARK    3  A    between atoms: C_7  and  O_65
REMARK    4  A    between atoms: C_8  and  C_64
REMARK    5  A    between atoms: C_10  and  O_63
REMARK    6  A    between atoms: C_17  and  O_61
REMARK    7  A    between atoms: C_19  and  C_60
REMARK    8  A    between atoms: C_26  and  C_37
REMARK    9  A    between atoms: C_27  and  C_36
REMARK   10  A    between atoms: C_30  and  O_34
REMARK   11  A    between atoms: C_32  and  O_33
REMARK   12  A    between atoms: O_34  and  C_35
REMARK   13  A    between atoms: C_37  and  C_38
REMARK   14  A    between atoms: C_37  and  C_39
REMARK   15  A    between atoms: C_39  and  C_40
REMARK   16  A    between atoms: C_39  and  O_58
REMARK   17  A    between atoms: C_40  and  C_41
REMARK   18  A    between atoms: C_40  and  C_42
REMARK   19  A    between atoms: C_42  and  C_43
REMARK   20  A    between atoms: C_43  and  C_44
REMARK   21  A    between atoms: C_44  and  C_46
REMARK   22  A    between atoms: C_46  and  C_47
REMARK   23  A    between atoms: C_46  and  C_48
REMARK   24  A    between atoms: C_48  and  C_49
REMARK   25  A    between atoms: C_48  and  O_56
REMARK   26  A    between atoms: C_49  and  C_50
REMARK   27  A    between atoms: C_51  and  N_52
REMARK   28  A    between atoms: N_52  and  C_53
REMARK   29  A    between atoms: O_56  and  C_57
REMARK   30  A    between atoms: O_58  and  C_59
REMARK   31  A    between atoms: O_61  and  C_62
REMARK   32  A    between atoms: O_65  and  C_66
REMARK   33  A    between atoms: O_67  and  C_68
REMARK                            x       y       z     vdW  Elec       q    Type
REMARK                         _______ _______ _______ _____ _____    ______ ____
ROOT
ATOM      1  C   UNL     1     143.800 172.463 189.180  0.00  0.00    +0.000 C 
ATOM      2  C   UNL     1     142.816 171.966 190.214  0.00  0.00    -0.080 C 
ATOM      3  C   UNL     1     141.965 172.773 190.871  0.00  0.00    -0.059 C 
ATOM      4  C   UNL     1     140.908 172.315 191.845  0.00  0.00    +0.079 C 
ATOM      5  C   UNL     1     139.500 172.786 191.419  0.00  0.00    +0.004 C 
ATOM      6  C   UNL     1     138.713 171.867 190.455  0.00  0.00    +0.067 C 
ATOM      7  C   UNL     1     139.405 171.677 189.069  0.00  0.00    +0.022 C 
ATOM      8  C   UNL     1     138.442 172.063 187.896  0.00  0.00    +0.138 C 
ATOM      9  C   UNL     1     139.104 172.358 186.533  0.00  0.00    +0.114 C 
ATOM     10  C   UNL     1     139.469 171.078 185.830  0.00  0.00    -0.029 C 
ATOM     11  C   UNL     1     138.637 170.029 186.000  0.00  0.00    +0.024 C 
ATOM     12  C   UNL     1     137.446 170.085 186.873  0.00  0.00    +0.332 C 
ATOM     13  O   UNL     1     136.584 169.218 186.815  0.00  0.00    -0.246 OA
ATOM     14  O   UNL     1     137.357 171.125 187.743  0.00  0.00    -0.455 OA
ATOM     15  C   UNL     1     140.699 171.100 184.940  0.00  0.00    -0.002 C 
ATOM     16  C   UNL     1     141.189 169.822 184.213  0.00  0.00    +0.066 C 
ATOM     17  C   UNL     1     141.769 168.747 185.182  0.00  0.00    -0.005 C 
ATOM     18  C   UNL     1     142.669 167.712 184.507  0.00  0.00    -0.070 C 
ATOM     19  C   UNL     1     143.820 167.206 184.997  0.00  0.00    -0.062 C 
ATOM     20  C   UNL     1     144.457 167.422 186.282  0.00  0.00    -0.055 C 
ATOM     21  C   UNL     1     145.554 166.717 186.606  0.00  0.00    +0.023 C 
ATOM     22  C   UNL     1     146.220 166.630 187.918  0.00  0.00    +0.332 C 
ATOM     23  O   UNL     1     146.985 165.707 188.160  0.00  0.00    -0.246 OA
ATOM     24  O   UNL     1     145.843 167.601 188.784  0.00  0.00    -0.457 OA
ATOM     25  C   UNL     1     146.153 167.345 190.186  0.00  0.00    +0.114 C 
ATOM     26  C   UNL     1     147.427 168.121 190.645  0.00  0.00    +0.012 C 
ATOM     27  C   UNL     1     147.354 169.612 190.396  0.00  0.00    -0.079 C 
ATOM     28  C   UNL     1     147.287 170.546 191.359  0.00  0.00    -0.059 C 
ATOM     29  C   UNL     1     147.211 172.031 191.119  0.00  0.00    +0.079 C 
ATOM     30  C   UNL     1     145.773 172.501 190.833  0.00  0.00    +0.004 C 
ATOM     31  C   UNL     1     145.251 172.027 189.474  0.00  0.00    +0.064 C 
ATOM     32  H   UNL     1     143.766 173.562 189.129  0.00  0.00    +0.037 HD
ATOM     33  H   UNL     1     142.791 170.894 190.392  0.00  0.00    +0.057 HD
ATOM     34  H   UNL     1     142.007 173.847 190.697  0.00  0.00    +0.059 HD
ATOM     35  H   UNL     1     140.915 171.228 191.988  0.00  0.00    +0.064 HD
ATOM     36  H   UNL     1     139.552 173.799 190.995  0.00  0.00    +0.032 HD
ATOM     37  H   UNL     1     138.897 172.885 192.333  0.00  0.00    +0.032 HD
ATOM     38  H   UNL     1     137.740 172.360 190.317  0.00  0.00    +0.060 HD
ATOM     39  H   UNL     1     140.211 172.414 189.007  0.00  0.00    +0.036 HD
ATOM     40  H   UNL     1     137.969 173.011 188.191  0.00  0.00    +0.077 HD
ATOM     41  H   UNL     1     138.386 172.879 185.884  0.00  0.00    +0.068 HD
ATOM     42  H   UNL     1     138.761 169.082 185.491  0.00  0.00    +0.069 HD
ATOM     43  H   UNL     1     140.519 171.869 184.176  0.00  0.00    +0.034 HD
ATOM     44  H   UNL     1     141.547 171.459 185.533  0.00  0.00    +0.034 HD
ATOM     45  H   UNL     1     142.002 170.124 183.537  0.00  0.00    +0.060 HD
ATOM     46  H   UNL     1     142.331 169.257 185.973  0.00  0.00    +0.034 HD
ATOM     47  H   UNL     1     140.949 168.199 185.659  0.00  0.00    +0.034 HD
ATOM     48  H   UNL     1     144.334 166.475 184.369  0.00  0.00    +0.062 HD
ATOM     49  H   UNL     1     143.987 168.082 187.001  0.00  0.00    +0.062 HD
ATOM     50  H   UNL     1     145.990 166.023 185.893  0.00  0.00    +0.069 HD
ATOM     51  H   UNL     1     146.371 166.278 190.300  0.00  0.00    +0.074 HD
ATOM     52  H   UNL     1     147.568 167.940 191.717  0.00  0.00    +0.038 HD
ATOM     53  H   UNL     1     147.363 169.922 189.351  0.00  0.00    +0.057 HD
ATOM     54  H   UNL     1     147.294 170.244 192.402  0.00  0.00    +0.059 HD
ATOM     55  H   UNL     1     147.891 172.301 190.303  0.00  0.00    +0.064 HD
ATOM     56  H   UNL     1     145.744 173.598 190.861  0.00  0.00    +0.032 HD
ATOM     57  H   UNL     1     145.117 172.166 191.644  0.00  0.00    +0.032 HD
ATOM     58  H   UNL     1     145.285 170.935 189.413  0.00  0.00    +0.060 HD
ENDROOT
BRANCH   1  59
ATOM     59  C   UNL     1     143.370 171.943 187.801  0.00  0.00    -0.057 C 
ATOM     60  H   UNL     1     142.394 171.447 187.846  0.00  0.00    +0.024 HD
ATOM     61  H   UNL     1     143.295 172.763 187.088  0.00  0.00    +0.024 HD
ATOM     62  H   UNL     1     144.094 171.225 187.403  0.00  0.00    +0.024 HD
ENDBRANCH   1  59
BRANCH  26  63
ATOM     63  C   UNL     1     148.695 167.592 189.960  0.00  0.00    -0.056 C 
ATOM     64  H   UNL     1     148.821 168.043 188.968  0.00  0.00    +0.024 HD
ATOM     65  H   UNL     1     149.583 167.844 190.548  0.00  0.00    +0.024 HD
ATOM     66  H   UNL     1     148.668 166.505 189.827  0.00  0.00    +0.024 HD
ENDBRANCH  26  63
BRANCH  18  67
ATOM     67  C   UNL     1     142.170 167.165 183.185  0.00  0.00    -0.043 C 
ATOM     68  H   UNL     1     141.357 167.791 182.797  0.00  0.00    +0.027 HD
ATOM     69  H   UNL     1     142.981 167.129 182.451  0.00  0.00    +0.027 HD
ATOM     70  H   UNL     1     141.766 166.151 183.276  0.00  0.00    +0.027 HD
ENDBRANCH  18  67
BRANCH   7  71
ATOM     71  C   UNL     1     140.040 170.286 188.934  0.00  0.00    -0.057 C 
ATOM     72  H   UNL     1     139.667 169.599 189.698  0.00  0.00    +0.023 HD
ATOM     73  H   UNL     1     139.823 169.827 187.964  0.00  0.00    +0.023 HD
ATOM     74  H   UNL     1     141.125 170.327 189.062  0.00  0.00    +0.023 HD
ENDBRANCH   7  71
BRANCH  31  75
ATOM     75  O   UNL     1     146.115 172.532 188.449  0.00  0.00    -0.391 OA
ATOM     76  H   UNL     1     145.669 172.409 187.593  0.00  0.00    +0.210 HD
ENDBRANCH  31  75
BRANCH  25  77
ATOM     77  C   UNL     1     144.866 167.647 191.019  0.00  0.00    +0.020 C 
ATOM     78  H   UNL     1     145.135 168.355 191.810  0.00  0.00    +0.036 HD
BRANCH  77  79
ATOM     79  C   UNL     1     143.830 168.421 190.173  0.00  0.00    -0.057 C 
ATOM     80  H   UNL     1     142.809 168.240 190.525  0.00  0.00    +0.023 HD
ATOM     81  H   UNL     1     143.885 168.126 189.120  0.00  0.00    +0.023 HD
ATOM     82  H   UNL     1     144.021 169.498 190.201  0.00  0.00    +0.023 HD
ENDBRANCH  77  79
BRANCH  77  83
ATOM     83  C   UNL     1     144.156 166.393 191.644  0.00  0.00    +0.067 C 
ATOM     84  H   UNL     1     143.087 166.426 191.392  0.00  0.00    +0.060 HD
BRANCH  83  85
ATOM     85  C   UNL     1     144.220 166.341 193.198  0.00  0.00    -0.017 C 
ATOM     86  H   UNL     1     144.659 167.279 193.548  0.00  0.00    +0.032 HD
BRANCH  85  87
ATOM     87  C   UNL     1     142.827 166.240 193.826  0.00  0.00    -0.060 C 
ATOM     88  H   UNL     1     142.703 166.977 194.626  0.00  0.00    +0.023 HD
ATOM     89  H   UNL     1     142.041 166.444 193.093  0.00  0.00    +0.023 HD
ATOM     90  H   UNL     1     142.640 165.243 194.237  0.00  0.00    +0.023 HD
ENDBRANCH  85  87
BRANCH  85  91
ATOM     91  C   UNL     1     145.170 165.244 193.756  0.00  0.00    -0.041 C 
ATOM     92  H   UNL     1     144.903 164.278 193.311  0.00  0.00    +0.027 HD
ATOM     93  H   UNL     1     144.955 165.136 194.829  0.00  0.00    +0.027 HD
BRANCH  91  94
ATOM     94  C   UNL     1     146.676 165.479 193.619  0.00  0.00    +0.007 C 
ATOM     95  H   UNL     1     146.881 165.893 192.624  0.00  0.00    +0.034 HD
ATOM     96  H   UNL     1     147.216 164.531 193.682  0.00  0.00    +0.034 HD
BRANCH  94  97
ATOM     97  C   UNL     1     147.271 166.460 194.615  0.00  0.00    +0.139 C 
ATOM     98  O   UNL     1     147.228 167.677 194.430  0.00  0.00    -0.297 OA
BRANCH  97  99
ATOM     99  C   UNL     1     147.961 165.858 195.833  0.00  0.00    +0.041 C 
ATOM    100  H   UNL     1     147.307 165.063 196.212  0.00  0.00    +0.040 HD
BRANCH  99 101
ATOM    101  C   UNL     1     148.058 166.903 196.940  0.00  0.00    -0.053 C 
ATOM    102  H   UNL     1     147.199 166.821 197.615  0.00  0.00    +0.024 HD
ATOM    103  H   UNL     1     148.052 167.924 196.545  0.00  0.00    +0.024 HD
ATOM    104  H   UNL     1     148.967 166.764 197.535  0.00  0.00    +0.024 HD
ENDBRANCH  99 101
BRANCH  99 105
ATOM    105  C   UNL     1     149.305 165.214 195.428  0.00  0.00    +0.071 C 
ATOM    106  H   UNL     1     149.130 164.482 194.626  0.00  0.00    +0.061 HD
BRANCH 105 107
ATOM    107  C   UNL     1     150.369 166.224 194.944  0.00  0.00    -0.006 C 
ATOM    108  H   UNL     1     151.297 166.102 195.516  0.00  0.00    +0.033 HD
ATOM    109  H   UNL     1     150.025 167.252 195.093  0.00  0.00    +0.033 HD
BRANCH 107 110
ATOM    110  C   UNL     1     150.711 165.999 193.489  0.00  0.00    -0.067 C 
ATOM    111  C   UNL     1     151.554 166.786 192.806  0.00  0.00    -0.005 C 
ATOM    112  H   UNL     1     150.210 165.148 193.037  0.00  0.00    +0.059 HD
ATOM    113  H   UNL     1     152.017 167.625 193.326  0.00  0.00    +0.078 HD
BRANCH 111 114
ATOM    114  N   UNL     1     151.919 166.669 191.473  0.00  0.00    -0.284 N 
ATOM    115  C   UNL     1     152.197 167.730 190.620  0.00  0.00    +0.206 C 
ATOM    116  O   UNL     1     152.545 167.639 189.448  0.00  0.00    -0.279 OA
ATOM    117  H   UNL     1     152.089 168.718 191.088  0.00  0.00    +0.126 HD
BRANCH 114 118
ATOM    118  C   UNL     1     152.033 165.318 190.935  0.00  0.00    +0.007 C 
ATOM    119  H   UNL     1     151.920 165.359 189.846  0.00  0.00    +0.043 HD
ATOM    120  H   UNL     1     151.268 164.647 191.338  0.00  0.00    +0.043 HD
ATOM    121  H   UNL     1     153.017 164.910 191.187  0.00  0.00    +0.043 HD
ENDBRANCH 114 118
ENDBRANCH 111 114
ENDBRANCH 107 110
ENDBRANCH 105 107
BRANCH 105 122
ATOM    122  O   UNL     1     149.856 164.536 196.578  0.00  0.00    -0.379 OA
BRANCH 122 123
ATOM    123  C   UNL     1     151.014 163.768 196.281  0.00  0.00    +0.037 C 
ATOM    124  H   UNL     1     151.833 164.409 195.954  0.00  0.00    +0.052 HD
ATOM    125  H   UNL     1     150.768 163.077 195.473  0.00  0.00    +0.052 HD
ATOM    126  H   UNL     1     151.319 163.182 197.152  0.00  0.00    +0.052 HD
ENDBRANCH 122 123
ENDBRANCH 105 122
ENDBRANCH  99 105
ENDBRANCH  97  99
ENDBRANCH  94  97
ENDBRANCH  91  94
ENDBRANCH  85  91
ENDBRANCH  83  85
BRANCH  83 127
ATOM    127  O   UNL     1     144.698 165.162 191.147  0.00  0.00    -0.379 OA
BRANCH 127 128
ATOM    128  C   UNL     1     143.913 164.551 190.127  0.00  0.00    +0.037 C 
ATOM    129  H   UNL     1     142.885 164.389 190.459  0.00  0.00    +0.052 HD
ATOM    130  H   UNL     1     144.363 163.579 189.895  0.00  0.00    +0.052 HD
ATOM    131  H   UNL     1     143.923 165.152 189.216  0.00  0.00    +0.052 HD
ENDBRANCH 127 128
ENDBRANCH  83 127
ENDBRANCH  77  83
ENDBRANCH  25  77
BRANCH   9 132
ATOM    132  O   UNL     1     140.232 173.210 186.670  0.00  0.00    -0.384 OA
ATOM    133  H   UNL     1     139.906 174.128 186.670  0.00  0.00    +0.210 HD
ENDBRANCH   9 132
BRANCH  29 134
ATOM    134  O   UNL     1     147.663 172.642 192.338  0.00  0.00    -0.376 OA
BRANCH 134 135
ATOM    135  C   UNL     1     148.866 172.073 192.833  0.00  0.00    +0.037 C 
ATOM    136  H   UNL     1     148.798 171.923 193.916  0.00  0.00    +0.052 HD
ATOM    137  H   UNL     1     149.685 172.769 192.628  0.00  0.00    +0.052 HD
ATOM    138  H   UNL     1     149.087 171.122 192.337  0.00  0.00    +0.052 HD
ENDBRANCH 134 135
ENDBRANCH  29 134
BRANCH   6 139
ATOM    139  O   UNL     1     138.520 170.627 191.149  0.00  0.00    -0.379 OA
BRANCH 139 140
ATOM    140  C   UNL     1     137.193 170.123 191.040  0.00  0.00    +0.037 C 
ATOM    141  H   UNL     1     137.154 169.293 190.325  0.00  0.00    +0.052 HD
ATOM    142  H   UNL     1     136.553 170.931 190.671  0.00  0.00    +0.052 HD
ATOM    143  H   UNL     1     136.816 169.802 192.015  0.00  0.00    +0.052 HD
ENDBRANCH 139 140
ENDBRANCH   6 139
BRANCH  16 144
ATOM    144  O   UNL     1     140.136 169.231 183.434  0.00  0.00    -0.379 OA
BRANCH 144 145
ATOM    145  C   UNL     1     139.818 169.952 182.253  0.00  0.00    +0.037 C 
ATOM    146  H   UNL     1     140.496 169.685 181.440  0.00  0.00    +0.052 HD
ATOM    147  H   UNL     1     138.779 169.783 181.954  0.00  0.00    +0.052 HD
ATOM    148  H   UNL     1     139.949 171.017 182.463  0.00  0.00    +0.052 HD
ENDBRANCH 144 145
ENDBRANCH  16 144
BRANCH   4 149
ATOM    149  O   UNL     1     141.200 172.975 193.088  0.00  0.00    -0.376 OA
BRANCH 149 150
ATOM    150  C   UNL     1     140.040 173.162 193.890  0.00  0.00    +0.037 C 
ATOM    151  H   UNL     1     140.345 173.630 194.832  0.00  0.00    +0.052 HD
ATOM    152  H   UNL     1     139.331 173.829 193.390  0.00  0.00    +0.052 HD
ATOM    153  H   UNL     1     139.565 172.204 194.120  0.00  0.00    +0.052 HD
ENDBRANCH 149 150
ENDBRANCH   4 149
TORSDOF 33
ENDMDL
MODEL 3
REMARK VINA RESULT:      -4.6      2.369      4.225
REMARK  Name = Sphinxolide B_conf3
REMARK  33 active torsions:
REMARK  status: ('A' for Active; 'I' for Inactive)
REMARK    1  A    between atoms: C_1  and  C_2
REMARK    2  A    between atoms: C_5  and  O_67
REMARK    3  A    between atoms: C_7  and  O_65
REMARK    4  A    between atoms: C_8  and  C_64
REMARK    5  A    between atoms: C_10  and  O_63
REMARK    6  A    between atoms: C_17  and  O_61
REMARK    7  A    between atoms: C_19  and  C_60
REMARK    8  A    between atoms: C_26  and  C_37
REMARK    9  A    between atoms: C_27  and  C_36
REMARK   10  A    between atoms: C_30  and  O_34
REMARK   11  A    between atoms: C_32  and  O_33
REMARK   12  A    between atoms: O_34  and  C_35
REMARK   13  A    between atoms: C_37  and  C_38
REMARK   14  A    between atoms: C_37  and  C_39
REMARK   15  A    between atoms: C_39  and  C_40
REMARK   16  A    between atoms: C_39  and  O_58
REMARK   17  A    between atoms: C_40  and  C_41
REMARK   18  A    between atoms: C_40  and  C_42
REMARK   19  A    between atoms: C_42  and  C_43
REMARK   20  A    between atoms: C_43  and  C_44
REMARK   21  A    between atoms: C_44  and  C_46
REMARK   22  A    between atoms: C_46  and  C_47
REMARK   23  A    between atoms: C_46  and  C_48
REMARK   24  A    between atoms: C_48  and  C_49
REMARK   25  A    between atoms: C_48  and  O_56
REMARK   26  A    between atoms: C_49  and  C_50
REMARK   27  A    between atoms: C_51  and  N_52
REMARK   28  A    between atoms: N_52  and  C_53
REMARK   29  A    between atoms: O_56  and  C_57
REMARK   30  A    between atoms: O_58  and  C_59
REMARK   31  A    between atoms: O_61  and  C_62
REMARK   32  A    between atoms: O_65  and  C_66
REMARK   33  A    between atoms: O_67  and  C_68
REMARK                            x       y       z     vdW  Elec       q    Type
REMARK                         _______ _______ _______ _____ _____    ______ ____
ROOT
ATOM      1  C   UNL     1     147.355 166.428 187.181  0.00  0.00    +0.000 C 
ATOM      2  C   UNL     1     146.346 165.642 187.986  0.00  0.00    -0.080 C 
ATOM      3  C   UNL     1     145.166 165.231 187.493  0.00  0.00    -0.059 C 
ATOM      4  C   UNL     1     144.166 164.371 188.226  0.00  0.00    +0.079 C 
ATOM      5  C   UNL     1     143.843 163.080 187.442  0.00  0.00    +0.004 C 
ATOM      6  C   UNL     1     144.761 161.859 187.689  0.00  0.00    +0.067 C 
ATOM      7  C   UNL     1     146.248 162.102 187.280  0.00  0.00    +0.022 C 
ATOM      8  C   UNL     1     146.744 161.014 186.270  0.00  0.00    +0.138 C 
ATOM      9  C   UNL     1     148.001 161.365 185.445  0.00  0.00    +0.114 C 
ATOM     10  C   UNL     1     149.247 161.185 186.271  0.00  0.00    -0.029 C 
ATOM     11  C   UNL     1     149.247 160.174 187.165  0.00  0.00    +0.024 C 
ATOM     12  C   UNL     1     148.075 159.302 187.386  0.00  0.00    +0.332 C 
ATOM     13  O   UNL     1     148.181 158.254 188.009  0.00  0.00    -0.246 OA
ATOM     14  O   UNL     1     146.883 159.716 186.883  0.00  0.00    -0.455 OA
ATOM     15  C   UNL     1     150.415 162.111 185.978  0.00  0.00    -0.002 C 
ATOM     16  C   UNL     1     151.723 162.042 186.806  0.00  0.00    +0.066 C 
ATOM     17  C   UNL     1     151.549 162.539 188.273  0.00  0.00    -0.005 C 
ATOM     18  C   UNL     1     152.856 162.929 188.963  0.00  0.00    -0.070 C 
ATOM     19  C   UNL     1     153.051 163.988 189.777  0.00  0.00    -0.062 C 
ATOM     20  C   UNL     1     152.099 164.962 190.277  0.00  0.00    -0.055 C 
ATOM     21  C   UNL     1     152.497 165.876 191.178  0.00  0.00    +0.023 C 
ATOM     22  C   UNL     1     151.657 166.803 191.958  0.00  0.00    +0.332 C 
ATOM     23  O   UNL     1     152.099 167.329 192.971  0.00  0.00    -0.246 OA
ATOM     24  O   UNL     1     150.397 166.930 191.478  0.00  0.00    -0.457 OA
ATOM     25  C   UNL     1     149.428 167.503 192.405  0.00  0.00    +0.114 C 
ATOM     26  C   UNL     1     149.164 169.011 192.102  0.00  0.00    +0.012 C 
ATOM     27  C   UNL     1     148.734 169.279 190.676  0.00  0.00    -0.079 C 
ATOM     28  C   UNL     1     147.515 169.709 190.310  0.00  0.00    -0.059 C 
ATOM     29  C   UNL     1     147.081 169.974 188.893  0.00  0.00    +0.079 C 
ATOM     30  C   UNL     1     146.629 168.691 188.173  0.00  0.00    +0.004 C 
ATOM     31  C   UNL     1     147.789 167.735 187.878  0.00  0.00    +0.064 C 
ATOM     32  H   UNL     1     146.934 166.678 186.195  0.00  0.00    +0.037 HD
ATOM     33  H   UNL     1     146.629 165.376 189.003  0.00  0.00    +0.057 HD
ATOM     34  H   UNL     1     144.884 165.513 186.478  0.00  0.00    +0.059 HD
ATOM     35  H   UNL     1     144.496 164.124 189.242  0.00  0.00    +0.064 HD
ATOM     36  H   UNL     1     143.803 163.292 186.364  0.00  0.00    +0.032 HD
ATOM     37  H   UNL     1     142.824 162.776 187.717  0.00  0.00    +0.032 HD
ATOM     38  H   UNL     1     144.338 161.051 187.076  0.00  0.00    +0.060 HD
ATOM     39  H   UNL     1     146.276 163.034 186.706  0.00  0.00    +0.036 HD
ATOM     40  H   UNL     1     145.941 160.902 185.526  0.00  0.00    +0.077 HD
ATOM     41  H   UNL     1     148.085 160.673 184.595  0.00  0.00    +0.068 HD
ATOM     42  H   UNL     1     150.109 159.909 187.762  0.00  0.00    +0.069 HD
ATOM     43  H   UNL     1     150.679 161.956 184.923  0.00  0.00    +0.034 HD
ATOM     44  H   UNL     1     150.061 163.145 186.049  0.00  0.00    +0.034 HD
ATOM     45  H   UNL     1     152.451 162.708 186.319  0.00  0.00    +0.060 HD
ATOM     46  H   UNL     1     150.868 163.397 188.273  0.00  0.00    +0.034 HD
ATOM     47  H   UNL     1     151.088 161.750 188.878  0.00  0.00    +0.034 HD
ATOM     48  H   UNL     1     154.059 164.112 190.178  0.00  0.00    +0.062 HD
ATOM     49  H   UNL     1     151.058 164.883 189.986  0.00  0.00    +0.062 HD
ATOM     50  H   UNL     1     153.534 165.917 191.498  0.00  0.00    +0.069 HD
ATOM     51  H   UNL     1     149.846 167.451 193.416  0.00  0.00    +0.074 HD
ATOM     52  H   UNL     1     148.383 169.364 192.786  0.00  0.00    +0.038 HD
ATOM     53  H   UNL     1     149.491 169.107 189.910  0.00  0.00    +0.057 HD
ATOM     54  H   UNL     1     146.763 169.898 191.071  0.00  0.00    +0.059 HD
ATOM     55  H   UNL     1     147.893 170.474 188.353  0.00  0.00    +0.064 HD
ATOM     56  H   UNL     1     146.144 168.964 187.227  0.00  0.00    +0.032 HD
ATOM     57  H   UNL     1     145.856 168.196 188.771  0.00  0.00    +0.032 HD
ATOM     58  H   UNL     1     148.301 167.460 188.804  0.00  0.00    +0.060 HD
ENDROOT
BRANCH   1  59
ATOM     59  C   UNL     1     148.582 165.542 186.927  0.00  0.00    -0.057 C 
ATOM     60  H   UNL     1     149.353 165.696 187.690  0.00  0.00    +0.024 HD
ATOM     61  H   UNL     1     148.304 164.488 186.942  0.00  0.00    +0.024 HD
ATOM     62  H   UNL     1     149.029 165.750 185.950  0.00  0.00    +0.024 HD
ENDBRANCH   1  59
BRANCH  26  63
ATOM     63  C   UNL     1     150.398 169.877 192.391  0.00  0.00    -0.056 C 
ATOM     64  H   UNL     1     150.794 169.671 193.393  0.00  0.00    +0.024 HD
ATOM     65  H   UNL     1     151.195 169.663 191.674  0.00  0.00    +0.024 HD
ATOM     66  H   UNL     1     150.170 170.948 192.342  0.00  0.00    +0.024 HD
ENDBRANCH  26  63
BRANCH  18  67
ATOM     67  C   UNL     1     154.023 161.985 188.751  0.00  0.00    -0.043 C 
ATOM     68  H   UNL     1     153.801 161.004 189.186  0.00  0.00    +0.027 HD
ATOM     69  H   UNL     1     154.236 161.868 187.684  0.00  0.00    +0.027 HD
ATOM     70  H   UNL     1     154.941 162.339 189.231  0.00  0.00    +0.027 HD
ENDBRANCH  18  67
BRANCH   7  71
ATOM     71  C   UNL     1     147.154 162.288 188.505  0.00  0.00    -0.057 C 
ATOM     72  H   UNL     1     146.705 161.860 189.405  0.00  0.00    +0.023 HD
ATOM     73  H   UNL     1     148.125 161.799 188.376  0.00  0.00    +0.023 HD
ATOM     74  H   UNL     1     147.325 163.346 188.721  0.00  0.00    +0.023 HD
ENDBRANCH   7  71
BRANCH  31  75
ATOM     75  O   UNL     1     148.745 168.416 187.055  0.00  0.00    -0.391 OA
ATOM     76  H   UNL     1     148.462 168.323 186.128  0.00  0.00    +0.210 HD
ENDBRANCH  31  75
BRANCH  25  77
ATOM     77  C   UNL     1     148.155 166.597 192.381  0.00  0.00    +0.020 C 
ATOM     78  H   UNL     1     147.277 167.251 192.377  0.00  0.00    +0.036 HD
BRANCH  77  79
ATOM     79  C   UNL     1     148.049 165.830 191.044  0.00  0.00    -0.057 C 
ATOM     80  H   UNL     1     147.066 165.362 190.927  0.00  0.00    +0.023 HD
ATOM     81  H   UNL     1     148.811 165.047 190.979  0.00  0.00    +0.023 HD
ATOM     82  H   UNL     1     148.219 166.496 190.192  0.00  0.00    +0.023 HD
ENDBRANCH  77  79
BRANCH  77  83
ATOM     83  C   UNL     1     148.043 165.561 193.556  0.00  0.00    +0.067 C 
ATOM     84  H   UNL     1     148.269 164.557 193.169  0.00  0.00    +0.060 HD
BRANCH  83  85
ATOM     85  C   UNL     1     146.619 165.460 194.175  0.00  0.00    -0.017 C 
ATOM     86  H   UNL     1     146.163 164.531 193.820  0.00  0.00    +0.032 HD
BRANCH  85  87
ATOM     87  C   UNL     1     146.661 165.379 195.704  0.00  0.00    -0.060 C 
ATOM     88  H   UNL     1     146.446 164.363 196.049  0.00  0.00    +0.023 HD
ATOM     89  H   UNL     1     147.652 165.635 196.091  0.00  0.00    +0.023 HD
ATOM     90  H   UNL     1     145.943 166.065 196.165  0.00  0.00    +0.023 HD
ENDBRANCH  85  87
BRANCH  85  91
ATOM     91  C   UNL     1     145.641 166.570 193.697  0.00  0.00    -0.041 C 
ATOM     92  H   UNL     1     146.108 167.131 192.878  0.00  0.00    +0.027 HD
ATOM     93  H   UNL     1     145.536 167.294 194.518  0.00  0.00    +0.027 HD
BRANCH  91  94
ATOM     94  C   UNL     1     144.229 166.140 193.290  0.00  0.00    +0.007 C 
ATOM     95  H   UNL     1     143.718 165.726 194.169  0.00  0.00    +0.034 HD
ATOM     96  H   UNL     1     144.274 165.341 192.547  0.00  0.00    +0.034 HD
BRANCH  94  97
ATOM     97  C   UNL     1     143.338 167.256 192.772  0.00  0.00    +0.139 C 
ATOM     98  O   UNL     1     142.805 168.066 193.532  0.00  0.00    -0.297 OA
BRANCH  97  99
ATOM     99  C   UNL     1     143.104 167.294 191.267  0.00  0.00    +0.041 C 
ATOM    100  H   UNL     1     142.600 166.358 190.996  0.00  0.00    +0.040 HD
BRANCH  99 101
ATOM    101  C   UNL     1     144.442 167.292 190.536  0.00  0.00    -0.053 C 
ATOM    102  H   UNL     1     145.217 166.839 191.164  0.00  0.00    +0.024 HD
ATOM    103  H   UNL     1     144.782 168.305 190.297  0.00  0.00    +0.024 HD
ATOM    104  H   UNL     1     144.383 166.716 189.607  0.00  0.00    +0.024 HD
ENDBRANCH  99 101
BRANCH  99 105
ATOM    105  C   UNL     1     142.163 168.462 190.897  0.00  0.00    +0.071 C 
ATOM    106  H   UNL     1     141.586 168.759 191.785  0.00  0.00    +0.061 HD
BRANCH 105 107
ATOM    107  C   UNL     1     142.891 169.710 190.349  0.00  0.00    -0.006 C 
ATOM    108  H   UNL     1     142.430 170.036 189.409  0.00  0.00    +0.033 HD
ATOM    109  H   UNL     1     143.942 169.486 190.138  0.00  0.00    +0.033 HD
BRANCH 107 110
ATOM    110  C   UNL     1     142.793 170.867 191.318  0.00  0.00    -0.067 C 
ATOM    111  C   UNL     1     141.779 171.743 191.310  0.00  0.00    -0.005 C 
ATOM    112  H   UNL     1     143.619 170.935 192.019  0.00  0.00    +0.059 HD
ATOM    113  H   UNL     1     140.986 171.613 190.573  0.00  0.00    +0.078 HD
BRANCH 111 114
ATOM    114  N   UNL     1     141.608 172.837 192.145  0.00  0.00    -0.284 N 
ATOM    115  C   UNL     1     140.692 172.918 193.186  0.00  0.00    +0.206 C 
ATOM    116  O   UNL     1     140.549 173.869 193.947  0.00  0.00    -0.279 OA
ATOM    117  H   UNL     1     140.069 172.020 193.302  0.00  0.00    +0.126 HD
BRANCH 114 118
ATOM    118  C   UNL     1     142.476 173.986 191.914  0.00  0.00    +0.007 C 
ATOM    119  H   UNL     1     142.268 174.747 192.675  0.00  0.00    +0.043 HD
ATOM    120  H   UNL     1     142.319 174.432 190.927  0.00  0.00    +0.043 HD
ATOM    121  H   UNL     1     143.522 173.671 191.987  0.00  0.00    +0.043 HD
ENDBRANCH 114 118
ENDBRANCH 111 114
ENDBRANCH 107 110
ENDBRANCH 105 107
BRANCH 105 122
ATOM    122  O   UNL     1     141.256 168.015 189.867  0.00  0.00    -0.379 OA
BRANCH 122 123
ATOM    123  C   UNL     1     141.513 168.594 188.595  0.00  0.00    +0.037 C 
ATOM    124  H   UNL     1     141.328 169.669 188.612  0.00  0.00    +0.052 HD
ATOM    125  H   UNL     1     140.841 168.136 187.868  0.00  0.00    +0.052 HD
ATOM    126  H   UNL     1     142.541 168.395 188.284  0.00  0.00    +0.052 HD
ENDBRANCH 122 123
ENDBRANCH 105 122
ENDBRANCH  99 105
ENDBRANCH  97  99
ENDBRANCH  94  97
ENDBRANCH  91  94
ENDBRANCH  85  91
ENDBRANCH  83  85
BRANCH  83 127
ATOM    127  O   UNL     1     148.958 165.849 194.621  0.00  0.00    -0.379 OA
BRANCH 127 128
ATOM    128  C   UNL     1     150.060 164.949 194.700  0.00  0.00    +0.037 C 
ATOM    129  H   UNL     1     150.971 165.397 194.295  0.00  0.00    +0.052 HD
ATOM    130  H   UNL     1     149.812 164.063 194.105  0.00  0.00    +0.052 HD
ATOM    131  H   UNL     1     150.227 164.627 195.729  0.00  0.00    +0.052 HD
ENDBRANCH 127 128
ENDBRANCH  83 127
ENDBRANCH  77  83
ENDBRANCH  25  77
BRANCH   9 132
ATOM    132  O   UNL     1     147.926 162.676 184.904  0.00  0.00    -0.384 OA
ATOM    133  H   UNL     1     146.985 162.924 184.869  0.00  0.00    +0.210 HD
ENDBRANCH   9 132
BRANCH  29 134
ATOM    134  O   UNL     1     145.959 170.865 188.995  0.00  0.00    -0.376 OA
BRANCH 134 135
ATOM    135  C   UNL     1     146.245 172.039 189.741  0.00  0.00    +0.037 C 
ATOM    136  H   UNL     1     145.416 172.750 189.665  0.00  0.00    +0.052 HD
ATOM    137  H   UNL     1     147.142 172.504 189.319  0.00  0.00    +0.052 HD
ATOM    138  H   UNL     1     146.440 171.802 190.792  0.00  0.00    +0.052 HD
ENDBRANCH 134 135
ENDBRANCH  29 134
BRANCH   6 139
ATOM    139  O   UNL     1     144.620 161.524 189.076  0.00  0.00    -0.379 OA
BRANCH 139 140
ATOM    140  C   UNL     1     144.160 160.193 189.288  0.00  0.00    +0.037 C 
ATOM    141  H   UNL     1     143.529 160.143 190.183  0.00  0.00    +0.052 HD
ATOM    142  H   UNL     1     145.035 159.554 189.443  0.00  0.00    +0.052 HD
ATOM    143  H   UNL     1     143.613 159.824 188.416  0.00  0.00    +0.052 HD
ENDBRANCH 139 140
ENDBRANCH   6 139
BRANCH  16 144
ATOM    144  O   UNL     1     152.257 160.708 186.822  0.00  0.00    -0.379 OA
BRANCH 144 145
ATOM    145  C   UNL     1     152.851 160.308 185.596  0.00  0.00    +0.037 C 
ATOM    146  H   UNL     1     153.919 160.123 185.723  0.00  0.00    +0.052 HD
ATOM    147  H   UNL     1     152.356 159.424 185.186  0.00  0.00    +0.052 HD
ATOM    148  H   UNL     1     152.736 161.130 184.883  0.00  0.00    +0.052 HD
ENDBRANCH 144 145
ENDBRANCH  16 144
BRANCH   4 149
ATOM    149  O   UNL     1     142.949 165.132 188.277  0.00  0.00    -0.376 OA
BRANCH 149 150
ATOM    150  C   UNL     1     141.958 164.520 189.093  0.00  0.00    +0.037 C 
ATOM    151  H   UNL     1     141.475 165.299 189.692  0.00  0.00    +0.052 HD
ATOM    152  H   UNL     1     141.192 164.041 188.473  0.00  0.00    +0.052 HD
ATOM    153  H   UNL     1     142.407 163.791 189.774  0.00  0.00    +0.052 HD
ENDBRANCH 149 150
ENDBRANCH   4 149
TORSDOF 33
ENDMDL
MODEL 4
REMARK VINA RESULT:      -4.6      2.234      6.276
REMARK  Name = Sphinxolide B_conf3
REMARK  33 active torsions:
REMARK  status: ('A' for Active; 'I' for Inactive)
REMARK    1  A    between atoms: C_1  and  C_2
REMARK    2  A    between atoms: C_5  and  O_67
REMARK    3  A    between atoms: C_7  and  O_65
REMARK    4  A    between atoms: C_8  and  C_64
REMARK    5  A    between atoms: C_10  and  O_63
REMARK    6  A    between atoms: C_17  and  O_61
REMARK    7  A    between atoms: C_19  and  C_60
REMARK    8  A    between atoms: C_26  and  C_37
REMARK    9  A    between atoms: C_27  and  C_36
REMARK   10  A    between atoms: C_30  and  O_34
REMARK   11  A    between atoms: C_32  and  O_33
REMARK   12  A    between atoms: O_34  and  C_35
REMARK   13  A    between atoms: C_37  and  C_38
REMARK   14  A    between atoms: C_37  and  C_39
REMARK   15  A    between atoms: C_39  and  C_40
REMARK   16  A    between atoms: C_39  and  O_58
REMARK   17  A    between atoms: C_40  and  C_41
REMARK   18  A    between atoms: C_40  and  C_42
REMARK   19  A    between atoms: C_42  and  C_43
REMARK   20  A    between atoms: C_43  and  C_44
REMARK   21  A    between atoms: C_44  and  C_46
REMARK   22  A    between atoms: C_46  and  C_47
REMARK   23  A    between atoms: C_46  and  C_48
REMARK   24  A    between atoms: C_48  and  C_49
REMARK   25  A    between atoms: C_48  and  O_56
REMARK   26  A    between atoms: C_49  and  C_50
REMARK   27  A    between atoms: C_51  and  N_52
REMARK   28  A    between atoms: N_52  and  C_53
REMARK   29  A    between atoms: O_56  and  C_57
REMARK   30  A    between atoms: O_58  and  C_59
REMARK   31  A    between atoms: O_61  and  C_62
REMARK   32  A    between atoms: O_65  and  C_66
REMARK   33  A    between atoms: O_67  and  C_68
REMARK                            x       y       z     vdW  Elec       q    Type
REMARK                         _______ _______ _______ _____ _____    ______ ____
ROOT
ATOM      1  C   UNL     1     147.949 168.417 188.062  0.00  0.00    +0.000 C 
ATOM      2  C   UNL     1     148.087 167.123 187.293  0.00  0.00    -0.080 C 
ATOM      3  C   UNL     1     148.739 167.027 186.121  0.00  0.00    -0.059 C 
ATOM      4  C   UNL     1     148.979 165.746 185.361  0.00  0.00    +0.079 C 
ATOM      5  C   UNL     1     150.484 165.509 185.108  0.00  0.00    +0.004 C 
ATOM      6  C   UNL     1     151.272 164.759 186.209  0.00  0.00    +0.067 C 
ATOM      7  C   UNL     1     151.305 165.511 187.576  0.00  0.00    +0.022 C 
ATOM      8  C   UNL     1     152.775 165.730 188.068  0.00  0.00    +0.138 C 
ATOM      9  C   UNL     1     152.986 166.824 189.137  0.00  0.00    +0.114 C 
ATOM     10  C   UNL     1     152.591 166.319 190.499  0.00  0.00    -0.029 C 
ATOM     11  C   UNL     1     152.832 165.017 190.762  0.00  0.00    +0.024 C 
ATOM     12  C   UNL     1     153.403 164.091 189.761  0.00  0.00    +0.332 C 
ATOM     13  O   UNL     1     153.837 162.997 190.096  0.00  0.00    -0.246 OA
ATOM     14  O   UNL     1     153.412 164.499 188.466  0.00  0.00    -0.455 OA
ATOM     15  C   UNL     1     152.023 167.331 191.478  0.00  0.00    -0.002 C 
ATOM     16  C   UNL     1     151.539 166.905 192.887  0.00  0.00    +0.066 C 
ATOM     17  C   UNL     1     150.245 166.037 192.856  0.00  0.00    -0.005 C 
ATOM     18  C   UNL     1     149.485 165.994 194.182  0.00  0.00    -0.070 C 
ATOM     19  C   UNL     1     148.146 166.043 194.344  0.00  0.00    -0.062 C 
ATOM     20  C   UNL     1     147.091 166.061 193.349  0.00  0.00    -0.055 C 
ATOM     21  C   UNL     1     145.807 165.994 193.743  0.00  0.00    +0.023 C 
ATOM     22  C   UNL     1     144.613 165.789 192.903  0.00  0.00    +0.332 C 
ATOM     23  O   UNL     1     143.564 165.410 193.408  0.00  0.00    -0.246 OA
ATOM     24  O   UNL     1     144.835 165.991 191.583  0.00  0.00    -0.457 OA
ATOM     25  C   UNL     1     143.830 165.433 190.685  0.00  0.00    +0.114 C 
ATOM     26  C   UNL     1     142.840 166.528 190.179  0.00  0.00    +0.012 C 
ATOM     27  C   UNL     1     143.520 167.708 189.521  0.00  0.00    -0.079 C 
ATOM     28  C   UNL     1     143.433 168.013 188.216  0.00  0.00    -0.059 C 
ATOM     29  C   UNL     1     144.111 169.185 187.554  0.00  0.00    +0.079 C 
ATOM     30  C   UNL     1     145.572 168.877 187.184  0.00  0.00    +0.004 C 
ATOM     31  C   UNL     1     146.483 168.753 188.409  0.00  0.00    +0.064 C 
ATOM     32  H   UNL     1     148.372 169.247 187.477  0.00  0.00    +0.037 HD
ATOM     33  H   UNL     1     147.661 166.232 187.749  0.00  0.00    +0.057 HD
ATOM     34  H   UNL     1     149.151 167.926 185.664  0.00  0.00    +0.059 HD
ATOM     35  H   UNL     1     148.538 164.876 185.860  0.00  0.00    +0.064 HD
ATOM     36  H   UNL     1     150.986 166.462 184.888  0.00  0.00    +0.032 HD
ATOM     37  H   UNL     1     150.573 164.915 184.188  0.00  0.00    +0.032 HD
ATOM     38  H   UNL     1     152.294 164.662 185.816  0.00  0.00    +0.060 HD
ATOM     39  H   UNL     1     150.929 166.522 187.397  0.00  0.00    +0.036 HD
ATOM     40  H   UNL     1     153.340 166.080 187.190  0.00  0.00    +0.077 HD
ATOM     41  H   UNL     1     154.054 167.078 189.194  0.00  0.00    +0.068 HD
ATOM     42  H   UNL     1     152.654 164.562 191.727  0.00  0.00    +0.069 HD
ATOM     43  H   UNL     1     152.793 168.104 191.610  0.00  0.00    +0.034 HD
ATOM     44  H   UNL     1     151.174 167.833 191.001  0.00  0.00    +0.034 HD
ATOM     45  H   UNL     1     151.303 167.825 193.442  0.00  0.00    +0.060 HD
ATOM     46  H   UNL     1     149.585 166.424 192.071  0.00  0.00    +0.034 HD
ATOM     47  H   UNL     1     150.498 165.004 192.596  0.00  0.00    +0.034 HD
ATOM     48  H   UNL     1     147.781 166.005 195.373  0.00  0.00    +0.062 HD
ATOM     49  H   UNL     1     147.354 166.035 192.299  0.00  0.00    +0.062 HD
ATOM     50  H   UNL     1     145.558 165.974 194.800  0.00  0.00    +0.069 HD
ATOM     51  H   UNL     1     143.238 164.702 191.245  0.00  0.00    +0.074 HD
ATOM     52  H   UNL     1     142.154 166.061 189.463  0.00  0.00    +0.038 HD
ATOM     53  H   UNL     1     144.115 168.343 190.179  0.00  0.00    +0.057 HD
ATOM     54  H   UNL     1     142.828 167.394 187.560  0.00  0.00    +0.059 HD
ATOM     55  H   UNL     1     144.037 170.062 188.207  0.00  0.00    +0.064 HD
ATOM     56  H   UNL     1     145.953 169.679 186.538  0.00  0.00    +0.032 HD
ATOM     57  H   UNL     1     145.606 167.965 186.577  0.00  0.00    +0.032 HD
ATOM     58  H   UNL     1     146.115 167.971 189.079  0.00  0.00    +0.060 HD
ENDROOT
BRANCH   1  59
ATOM     59  C   UNL     1     148.778 168.316 189.350  0.00  0.00    -0.057 C 
ATOM     60  H   UNL     1     149.851 168.271 189.134  0.00  0.00    +0.024 HD
ATOM     61  H   UNL     1     148.602 169.180 189.989  0.00  0.00    +0.024 HD
ATOM     62  H   UNL     1     148.513 167.423 189.925  0.00  0.00    +0.024 HD
ENDBRANCH   1  59
BRANCH  26  63
ATOM     63  C   UNL     1     141.956 167.068 191.313  0.00  0.00    -0.056 C 
ATOM     64  H   UNL     1     141.682 168.115 191.131  0.00  0.00    +0.024 HD
ATOM     65  H   UNL     1     141.028 166.494 191.384  0.00  0.00    +0.024 HD
ATOM     66  H   UNL     1     142.461 167.025 192.284  0.00  0.00    +0.024 HD
ENDBRANCH  26  63
BRANCH  18  67
ATOM     67  C   UNL     1     150.335 165.814 195.424  0.00  0.00    -0.043 C 
ATOM     68  H   UNL     1     150.125 166.612 196.146  0.00  0.00    +0.027 HD
ATOM     69  H   UNL     1     150.138 164.843 195.890  0.00  0.00    +0.027 HD
ATOM     70  H   UNL     1     151.408 165.862 195.209  0.00  0.00    +0.027 HD
ENDBRANCH  18  67
BRANCH   7  71
ATOM     71  C   UNL     1     150.384 164.852 188.612  0.00  0.00    -0.057 C 
ATOM     72  H   UNL     1     150.688 163.824 188.824  0.00  0.00    +0.023 HD
ATOM     73  H   UNL     1     150.391 165.386 189.568  0.00  0.00    +0.023 HD
ATOM     74  H   UNL     1     149.352 164.799 188.254  0.00  0.00    +0.023 HD
ENDBRANCH   7  71
BRANCH  31  75
ATOM     75  O   UNL     1     146.440 169.986 189.139  0.00  0.00    -0.391 OA
ATOM     76  H   UNL     1     147.084 169.927 189.866  0.00  0.00    +0.210 HD
ENDBRANCH  31  75
BRANCH  25  77
ATOM     77  C   UNL     1     144.581 164.657 189.556  0.00  0.00    +0.020 C 
ATOM     78  H   UNL     1     144.532 165.259 188.644  0.00  0.00    +0.036 HD
BRANCH  77  79
ATOM     79  C   UNL     1     146.094 164.571 189.859  0.00  0.00    -0.057 C 
ATOM     80  H   UNL     1     146.476 165.512 190.265  0.00  0.00    +0.023 HD
ATOM     81  H   UNL     1     146.662 164.333 188.953  0.00  0.00    +0.023 HD
ATOM     82  H   UNL     1     146.309 163.771 190.575  0.00  0.00    +0.023 HD
ENDBRANCH  77  79
BRANCH  77  83
ATOM     83  C   UNL     1     144.051 163.207 189.268  0.00  0.00    +0.067 C 
ATOM     84  H   UNL     1     144.747 162.478 189.706  0.00  0.00    +0.060 HD
BRANCH  83  85
ATOM     85  C   UNL     1     143.974 162.853 187.754  0.00  0.00    -0.017 C 
ATOM     86  H   UNL     1     142.964 162.490 187.545  0.00  0.00    +0.032 HD
BRANCH  85  87
ATOM     87  C   UNL     1     144.198 164.080 186.865  0.00  0.00    -0.060 C 
ATOM     88  H   UNL     1     143.246 164.543 186.588  0.00  0.00    +0.023 HD
ATOM     89  H   UNL     1     144.778 164.849 187.384  0.00  0.00    +0.023 HD
ATOM     90  H   UNL     1     144.741 163.822 185.951  0.00  0.00    +0.023 HD
ENDBRANCH  85  87
BRANCH  85  91
ATOM     91  C   UNL     1     144.896 161.675 187.332  0.00  0.00    -0.041 C 
ATOM     92  H   UNL     1     145.195 161.812 186.284  0.00  0.00    +0.027 HD
ATOM     93  H   UNL     1     144.288 160.759 187.340  0.00  0.00    +0.027 HD
BRANCH  91  94
ATOM     94  C   UNL     1     146.133 161.404 188.191  0.00  0.00    +0.007 C 
ATOM     95  H   UNL     1     146.231 160.321 188.339  0.00  0.00    +0.034 HD
ATOM     96  H   UNL     1     146.013 161.847 189.182  0.00  0.00    +0.034 HD
BRANCH  94  97
ATOM     97  C   UNL     1     147.451 161.867 187.593  0.00  0.00    +0.139 C 
ATOM     98  O   UNL     1     147.670 163.054 187.347  0.00  0.00    -0.297 OA
BRANCH  97  99
ATOM     99  C   UNL     1     148.470 160.781 187.273  0.00  0.00    +0.041 C 
ATOM    100  H   UNL     1     149.461 161.250 187.307  0.00  0.00    +0.040 HD
BRANCH  99 101
ATOM    101  C   UNL     1     148.273 160.291 185.842  0.00  0.00    -0.053 C 
ATOM    102  H   UNL     1     148.068 161.136 185.177  0.00  0.00    +0.024 HD
ATOM    103  H   UNL     1     147.422 159.607 185.755  0.00  0.00    +0.024 HD
ATOM    104  H   UNL     1     149.169 159.781 185.473  0.00  0.00    +0.024 HD
ENDBRANCH  99 101
BRANCH  99 105
ATOM    105  C   UNL     1     148.434 159.673 188.350  0.00  0.00    +0.071 C 
ATOM    106  H   UNL     1     147.529 159.792 188.962  0.00  0.00    +0.061 HD
BRANCH 105 107
ATOM    107  C   UNL     1     148.453 158.237 187.780  0.00  0.00    -0.006 C 
ATOM    108  H   UNL     1     149.427 157.769 187.962  0.00  0.00    +0.033 HD
ATOM    109  H   UNL     1     148.292 158.247 186.697  0.00  0.00    +0.033 HD
BRANCH 107 110
ATOM    110  C   UNL     1     147.410 157.372 188.450  0.00  0.00    -0.067 C 
ATOM    111  C   UNL     1     146.499 157.855 189.305  0.00  0.00    -0.005 C 
ATOM    112  H   UNL     1     147.465 156.320 188.187  0.00  0.00    +0.059 HD
ATOM    113  H   UNL     1     146.508 158.923 189.525  0.00  0.00    +0.078 HD
BRANCH 111 114
ATOM    114  N   UNL     1     145.516 157.143 189.976  0.00  0.00    -0.284 N 
ATOM    115  C   UNL     1     144.508 157.701 190.754  0.00  0.00    +0.206 C 
ATOM    116  O   UNL     1     143.619 157.084 191.330  0.00  0.00    -0.279 OA
ATOM    117  H   UNL     1     144.551 158.797 190.819  0.00  0.00    +0.126 HD
BRANCH 114 118
ATOM    118  C   UNL     1     145.539 155.691 189.836  0.00  0.00    +0.007 C 
ATOM    119  H   UNL     1     144.779 155.259 190.496  0.00  0.00    +0.043 HD
ATOM    120  H   UNL     1     146.512 155.266 190.103  0.00  0.00    +0.043 HD
ATOM    121  H   UNL     1     145.319 155.424 188.798  0.00  0.00    +0.043 HD
ENDBRANCH 114 118
ENDBRANCH 111 114
ENDBRANCH 107 110
ENDBRANCH 105 107
BRANCH 105 122
ATOM    122  O   UNL     1     149.599 159.810 189.191  0.00  0.00    -0.379 OA
BRANCH 122 123
ATOM    123  C   UNL     1     150.814 159.918 188.463  0.00  0.00    +0.037 C 
ATOM    124  H   UNL     1     151.505 159.121 188.737  0.00  0.00    +0.052 HD
ATOM    125  H   UNL     1     151.274 160.877 188.706  0.00  0.00    +0.052 HD
ATOM    126  H   UNL     1     150.620 159.895 187.387  0.00  0.00    +0.052 HD
ENDBRANCH 122 123
ENDBRANCH 105 122
ENDBRANCH  99 105
ENDBRANCH  97  99
ENDBRANCH  94  97
ENDBRANCH  91  94
ENDBRANCH  85  91
ENDBRANCH  83  85
BRANCH  83 127
ATOM    127  O   UNL     1     142.752 162.984 189.831  0.00  0.00    -0.379 OA
BRANCH 127 128
ATOM    128  C   UNL     1     142.340 161.620 189.819  0.00  0.00    +0.037 C 
ATOM    129  H   UNL     1     142.094 161.269 190.824  0.00  0.00    +0.052 HD
ATOM    130  H   UNL     1     143.174 161.022 189.434  0.00  0.00    +0.052 HD
ATOM    131  H   UNL     1     141.488 161.476 189.153  0.00  0.00    +0.052 HD
ENDBRANCH 127 128
ENDBRANCH  83 127
ENDBRANCH  77  83
ENDBRANCH  25  77
BRANCH   9 132
ATOM    132  O   UNL     1     152.293 168.019 188.810  0.00  0.00    -0.384 OA
ATOM    133  H   UNL     1     151.345 167.858 188.965  0.00  0.00    +0.210 HD
ENDBRANCH   9 132
BRANCH  29 134
ATOM    134  O   UNL     1     143.370 169.426 186.348  0.00  0.00    -0.376 OA
BRANCH 134 135
ATOM    135  C   UNL     1     142.820 168.243 185.786  0.00  0.00    +0.037 C 
ATOM    136  H   UNL     1     143.507 167.402 185.922  0.00  0.00    +0.052 HD
ATOM    137  H   UNL     1     142.678 168.407 184.712  0.00  0.00    +0.052 HD
ATOM    138  H   UNL     1     141.848 168.009 186.231  0.00  0.00    +0.052 HD
ENDBRANCH 134 135
ENDBRANCH  29 134
BRANCH   6 139
ATOM    139  O   UNL     1     150.679 163.457 186.311  0.00  0.00    -0.379 OA
BRANCH 139 140
ATOM    140  C   UNL     1     151.274 162.499 185.441  0.00  0.00    +0.037 C 
ATOM    141  H   UNL     1     151.736 161.690 186.019  0.00  0.00    +0.052 HD
ATOM    142  H   UNL     1     152.055 163.005 184.865  0.00  0.00    +0.052 HD
ATOM    143  H   UNL     1     150.537 162.094 184.743  0.00  0.00    +0.052 HD
ENDBRANCH 139 140
ENDBRANCH   6 139
BRANCH  16 144
ATOM    144  O   UNL     1     152.566 166.189 193.594  0.00  0.00    -0.379 OA
BRANCH 144 145
ATOM    145  C   UNL     1     153.750 166.943 193.811  0.00  0.00    +0.037 C 
ATOM    146  H   UNL     1     153.626 167.629 194.651  0.00  0.00    +0.052 HD
ATOM    147  H   UNL     1     154.611 166.289 193.976  0.00  0.00    +0.052 HD
ATOM    148  H   UNL     1     153.937 167.541 192.914  0.00  0.00    +0.052 HD
ENDBRANCH 144 145
ENDBRANCH  16 144
BRANCH   4 149
ATOM    149  O   UNL     1     148.374 165.931 184.071  0.00  0.00    -0.376 OA
BRANCH 149 150
ATOM    150  C   UNL     1     148.946 165.090 183.076  0.00  0.00    +0.037 C 
ATOM    151  H   UNL     1     148.344 164.178 183.009  0.00  0.00    +0.052 HD
ATOM    152  H   UNL     1     148.929 165.585 182.099  0.00  0.00    +0.052 HD
ATOM    153  H   UNL     1     149.969 164.809 183.342  0.00  0.00    +0.052 HD
ENDBRANCH 149 150
ENDBRANCH   4 149
TORSDOF 33
ENDMDL
MODEL 5
REMARK VINA RESULT:      -4.5      2.449      6.652
REMARK  Name = Sphinxolide B_conf3
REMARK  33 active torsions:
REMARK  status: ('A' for Active; 'I' for Inactive)
REMARK    1  A    between atoms: C_1  and  C_2
REMARK    2  A    between atoms: C_5  and  O_67
REMARK    3  A    between atoms: C_7  and  O_65
REMARK    4  A    between atoms: C_8  and  C_64
REMARK    5  A    between atoms: C_10  and  O_63
REMARK    6  A    between atoms: C_17  and  O_61
REMARK    7  A    between atoms: C_19  and  C_60
REMARK    8  A    between atoms: C_26  and  C_37
REMARK    9  A    between atoms: C_27  and  C_36
REMARK   10  A    between atoms: C_30  and  O_34
REMARK   11  A    between atoms: C_32  and  O_33
REMARK   12  A    between atoms: O_34  and  C_35
REMARK   13  A    between atoms: C_37  and  C_38
REMARK   14  A    between atoms: C_37  and  C_39
REMARK   15  A    between atoms: C_39  and  C_40
REMARK   16  A    between atoms: C_39  and  O_58
REMARK   17  A    between atoms: C_40  and  C_41
REMARK   18  A    between atoms: C_40  and  C_42
REMARK   19  A    between atoms: C_42  and  C_43
REMARK   20  A    between atoms: C_43  and  C_44
REMARK   21  A    between atoms: C_44  and  C_46
REMARK   22  A    between atoms: C_46  and  C_47
REMARK   23  A    between atoms: C_46  and  C_48
REMARK   24  A    between atoms: C_48  and  C_49
REMARK   25  A    between atoms: C_48  and  O_56
REMARK   26  A    between atoms: C_49  and  C_50
REMARK   27  A    between atoms: C_51  and  N_52
REMARK   28  A    between atoms: N_52  and  C_53
REMARK   29  A    between atoms: O_56  and  C_57
REMARK   30  A    between atoms: O_58  and  C_59
REMARK   31  A    between atoms: O_61  and  C_62
REMARK   32  A    between atoms: O_65  and  C_66
REMARK   33  A    between atoms: O_67  and  C_68
REMARK                            x       y       z     vdW  Elec       q    Type
REMARK                         _______ _______ _______ _____ _____    ______ ____
ROOT
ATOM      1  C   UNL     1     147.928 168.285 187.792  0.00  0.00    +0.000 C 
ATOM      2  C   UNL     1     148.071 166.971 187.059  0.00  0.00    -0.080 C 
ATOM      3  C   UNL     1     148.731 166.842 185.896  0.00  0.00    -0.059 C 
ATOM      4  C   UNL     1     148.975 165.542 185.172  0.00  0.00    +0.079 C 
ATOM      5  C   UNL     1     150.482 165.296 184.937  0.00  0.00    +0.004 C 
ATOM      6  C   UNL     1     151.261 164.575 186.063  0.00  0.00    +0.067 C 
ATOM      7  C   UNL     1     151.285 165.364 187.411  0.00  0.00    +0.022 C 
ATOM      8  C   UNL     1     152.751 165.595 187.907  0.00  0.00    +0.138 C 
ATOM      9  C   UNL     1     152.955 166.717 188.948  0.00  0.00    +0.114 C 
ATOM     10  C   UNL     1     152.549 166.249 190.320  0.00  0.00    -0.029 C 
ATOM     11  C   UNL     1     152.787 164.954 190.620  0.00  0.00    +0.024 C 
ATOM     12  C   UNL     1     153.364 164.001 189.649  0.00  0.00    +0.332 C 
ATOM     13  O   UNL     1     153.795 162.916 190.016  0.00  0.00    -0.246 OA
ATOM     14  O   UNL     1     153.384 164.374 188.343  0.00  0.00    -0.455 OA
ATOM     15  C   UNL     1     151.975 167.288 191.267  0.00  0.00    -0.002 C 
ATOM     16  C   UNL     1     151.480 166.900 192.683  0.00  0.00    +0.066 C 
ATOM     17  C   UNL     1     150.185 166.033 192.666  0.00  0.00    -0.005 C 
ATOM     18  C   UNL     1     149.416 166.026 193.987  0.00  0.00    -0.070 C 
ATOM     19  C   UNL     1     148.075 166.081 194.138  0.00  0.00    -0.062 C 
ATOM     20  C   UNL     1     147.027 166.073 193.135  0.00  0.00    -0.055 C 
ATOM     21  C   UNL     1     145.741 166.018 193.520  0.00  0.00    +0.023 C 
ATOM     22  C   UNL     1     144.553 165.791 192.678  0.00  0.00    +0.332 C 
ATOM     23  O   UNL     1     143.500 165.427 193.184  0.00  0.00    -0.246 OA
ATOM     24  O   UNL     1     144.785 165.958 191.354  0.00  0.00    -0.457 OA
ATOM     25  C   UNL     1     143.786 165.377 190.464  0.00  0.00    +0.114 C 
ATOM     26  C   UNL     1     142.801 166.458 189.921  0.00  0.00    +0.012 C 
ATOM     27  C   UNL     1     143.488 167.620 189.237  0.00  0.00    -0.079 C 
ATOM     28  C   UNL     1     143.410 167.890 187.923  0.00  0.00    -0.059 C 
ATOM     29  C   UNL     1     144.094 169.042 187.235  0.00  0.00    +0.079 C 
ATOM     30  C   UNL     1     145.559 168.723 186.885  0.00  0.00    +0.004 C 
ATOM     31  C   UNL     1     146.460 168.632 188.120  0.00  0.00    +0.064 C 
ATOM     32  H   UNL     1     148.356 169.099 187.188  0.00  0.00    +0.037 HD
ATOM     33  H   UNL     1     147.640 166.093 187.536  0.00  0.00    +0.057 HD
ATOM     34  H   UNL     1     149.147 167.729 185.418  0.00  0.00    +0.059 HD
ATOM     35  H   UNL     1     148.529 164.685 185.691  0.00  0.00    +0.064 HD
ATOM     36  H   UNL     1     150.986 166.242 184.695  0.00  0.00    +0.032 HD
ATOM     37  H   UNL     1     150.577 164.677 184.034  0.00  0.00    +0.032 HD
ATOM     38  H   UNL     1     152.286 164.467 185.681  0.00  0.00    +0.060 HD
ATOM     39  H   UNL     1     150.911 166.370 187.201  0.00  0.00    +0.036 HD
ATOM     40  H   UNL     1     153.322 165.921 187.025  0.00  0.00    +0.077 HD
ATOM     41  H   UNL     1     154.022 166.971 189.006  0.00  0.00    +0.068 HD
ATOM     42  H   UNL     1     152.600 164.526 191.596  0.00  0.00    +0.069 HD
ATOM     43  H   UNL     1     152.745 168.064 191.384  0.00  0.00    +0.034 HD
ATOM     44  H   UNL     1     151.130 167.777 190.771  0.00  0.00    +0.034 HD
ATOM     45  H   UNL     1     151.241 167.835 193.212  0.00  0.00    +0.060 HD
ATOM     46  H   UNL     1     149.531 166.399 191.866  0.00  0.00    +0.034 HD
ATOM     47  H   UNL     1     150.439 164.993 192.436  0.00  0.00    +0.034 HD
ATOM     48  H   UNL     1     147.702 166.070 195.164  0.00  0.00    +0.062 HD
ATOM     49  H   UNL     1     147.298 166.019 192.087  0.00  0.00    +0.062 HD
ATOM     50  H   UNL     1     145.483 166.026 194.575  0.00  0.00    +0.069 HD
ATOM     51  H   UNL     1     143.189 164.662 191.039  0.00  0.00    +0.074 HD
ATOM     52  H   UNL     1     142.120 165.973 189.212  0.00  0.00    +0.038 HD
ATOM     53  H   UNL     1     144.078 168.272 189.882  0.00  0.00    +0.057 HD
ATOM     54  H   UNL     1     142.810 167.253 187.279  0.00  0.00    +0.059 HD
ATOM     55  H   UNL     1     144.017 169.936 187.864  0.00  0.00    +0.064 HD
ATOM     56  H   UNL     1     145.945 169.507 186.220  0.00  0.00    +0.032 HD
ATOM     57  H   UNL     1     145.595 167.796 186.303  0.00  0.00    +0.032 HD
ATOM     58  H   UNL     1     146.086 167.868 188.808  0.00  0.00    +0.060 HD
ENDROOT
BRANCH   1  59
ATOM     59  C   UNL     1     148.747 168.217 189.089  0.00  0.00    -0.057 C 
ATOM     60  H   UNL     1     149.121 169.205 189.379  0.00  0.00    +0.024 HD
ATOM     61  H   UNL     1     148.138 167.837 189.908  0.00  0.00    +0.024 HD
ATOM     62  H   UNL     1     149.608 167.550 188.982  0.00  0.00    +0.024 HD
ENDBRANCH   1  59
BRANCH  26  63
ATOM     63  C   UNL     1     141.909 167.029 191.034  0.00  0.00    -0.056 C 
ATOM     64  H   UNL     1     140.920 167.299 190.642  0.00  0.00    +0.024 HD
ATOM     65  H   UNL     1     141.757 166.288 191.823  0.00  0.00    +0.024 HD
ATOM     66  H   UNL     1     142.341 167.929 191.485  0.00  0.00    +0.024 HD
ENDBRANCH  26  63
BRANCH  18  67
ATOM     67  C   UNL     1     150.256 165.879 195.240  0.00  0.00    -0.043 C 
ATOM     68  H   UNL     1     149.655 166.106 196.128  0.00  0.00    +0.027 HD
ATOM     69  H   UNL     1     150.653 164.862 195.322  0.00  0.00    +0.027 HD
ATOM     70  H   UNL     1     151.109 166.565 195.256  0.00  0.00    +0.027 HD
ENDBRANCH  18  67
BRANCH   7  71
ATOM     71  C   UNL     1     150.354 164.734 188.457  0.00  0.00    -0.057 C 
ATOM     72  H   UNL     1     150.047 163.726 188.166  0.00  0.00    +0.023 HD
ATOM     73  H   UNL     1     150.836 164.647 189.436  0.00  0.00    +0.023 HD
ATOM     74  H   UNL     1     149.434 165.312 188.574  0.00  0.00    +0.023 HD
ENDBRANCH   7  71
BRANCH  31  75
ATOM     75  O   UNL     1     146.412 169.884 188.815  0.00  0.00    -0.391 OA
ATOM     76  H   UNL     1     145.512 170.243 188.725  0.00  0.00    +0.210 HD
ENDBRANCH  31  75
BRANCH  25  77
ATOM     77  C   UNL     1     144.545 164.570 189.362  0.00  0.00    +0.020 C 
ATOM     78  H   UNL     1     144.633 165.208 188.477  0.00  0.00    +0.036 HD
BRANCH  77  79
ATOM     79  C   UNL     1     146.011 164.313 189.777  0.00  0.00    -0.057 C 
ATOM     80  H   UNL     1     146.484 163.563 189.135  0.00  0.00    +0.023 HD
ATOM     81  H   UNL     1     146.070 163.964 190.812  0.00  0.00    +0.023 HD
ATOM     82  H   UNL     1     146.602 165.234 189.728  0.00  0.00    +0.023 HD
ENDBRANCH  77  79
BRANCH  77  83
ATOM     83  C   UNL     1     143.895 163.195 188.966  0.00  0.00    +0.067 C 
ATOM     84  H   UNL     1     144.623 162.391 189.147  0.00  0.00    +0.060 HD
BRANCH  83  85
ATOM     85  C   UNL     1     143.519 163.086 187.460  0.00  0.00    -0.017 C 
ATOM     86  H   UNL     1     142.429 163.118 187.383  0.00  0.00    +0.032 HD
BRANCH  85  87
ATOM     87  C   UNL     1     144.056 164.268 186.646  0.00  0.00    -0.060 C 
ATOM     88  H   UNL     1     143.329 165.086 186.615  0.00  0.00    +0.023 HD
ATOM     89  H   UNL     1     144.967 164.679 187.092  0.00  0.00    +0.023 HD
ATOM     90  H   UNL     1     144.297 163.975 185.620  0.00  0.00    +0.023 HD
ENDBRANCH  85  87
BRANCH  85  91
ATOM     91  C   UNL     1     143.907 161.730 186.806  0.00  0.00    -0.041 C 
ATOM     92  H   UNL     1     143.479 161.683 185.797  0.00  0.00    +0.027 HD
ATOM     93  H   UNL     1     143.400 160.934 187.371  0.00  0.00    +0.027 HD
BRANCH  91  94
ATOM     94  C   UNL     1     145.394 161.371 186.755  0.00  0.00    +0.007 C 
ATOM     95  H   UNL     1     145.984 162.292 186.840  0.00  0.00    +0.034 HD
ATOM     96  H   UNL     1     145.645 160.925 185.790  0.00  0.00    +0.034 HD
BRANCH  94  97
ATOM     97  C   UNL     1     145.877 160.458 187.869  0.00  0.00    +0.139 C 
ATOM     98  O   UNL     1     145.175 159.548 188.313  0.00  0.00    -0.297 OA
BRANCH  97  99
ATOM     99  C   UNL     1     147.260 160.753 188.437  0.00  0.00    +0.041 C 
ATOM    100  H   UNL     1     147.115 161.132 189.456  0.00  0.00    +0.040 HD
BRANCH  99 101
ATOM    101  C   UNL     1     147.914 161.881 187.645  0.00  0.00    -0.053 C 
ATOM    102  H   UNL     1     147.505 161.917 186.629  0.00  0.00    +0.024 HD
ATOM    103  H   UNL     1     148.995 161.741 187.544  0.00  0.00    +0.024 HD
ATOM    104  H   UNL     1     147.730 162.852 188.116  0.00  0.00    +0.024 HD
ENDBRANCH  99 101
BRANCH  99 105
ATOM    105  C   UNL     1     148.094 159.456 188.529  0.00  0.00    +0.071 C 
ATOM    106  H   UNL     1     147.439 158.590 188.351  0.00  0.00    +0.061 HD
BRANCH 105 107
ATOM    107  C   UNL     1     149.271 159.389 187.531  0.00  0.00    -0.006 C 
ATOM    108  H   UNL     1     149.268 160.271 186.880  0.00  0.00    +0.033 HD
ATOM    109  H   UNL     1     149.185 158.507 186.887  0.00  0.00    +0.033 HD
BRANCH 107 110
ATOM    110  C   UNL     1     150.598 159.374 188.254  0.00  0.00    -0.067 C 
ATOM    111  C   UNL     1     151.684 158.750 187.777  0.00  0.00    -0.005 C 
ATOM    112  H   UNL     1     150.599 159.907 189.200  0.00  0.00    +0.059 HD
ATOM    113  H   UNL     1     151.606 158.231 186.821  0.00  0.00    +0.078 HD
BRANCH 111 114
ATOM    114  N   UNL     1     152.935 158.670 188.370  0.00  0.00    -0.284 N 
ATOM    115  C   UNL     1     153.484 159.623 189.219  0.00  0.00    +0.206 C 
ATOM    116  O   UNL     1     154.578 159.552 189.769  0.00  0.00    -0.279 OA
ATOM    117  H   UNL     1     152.838 160.496 189.386  0.00  0.00    +0.126 HD
BRANCH 114 118
ATOM    118  C   UNL     1     153.725 157.477 188.087  0.00  0.00    +0.007 C 
ATOM    119  H   UNL     1     153.470 156.701 188.817  0.00  0.00    +0.043 HD
ATOM    120  H   UNL     1     154.801 157.670 188.148  0.00  0.00    +0.043 HD
ATOM    121  H   UNL     1     153.495 157.121 187.078  0.00  0.00    +0.043 HD
ENDBRANCH 114 118
ENDBRANCH 111 114
ENDBRANCH 107 110
ENDBRANCH 105 107
BRANCH 105 122
ATOM    122  O   UNL     1     148.657 159.362 189.855  0.00  0.00    -0.379 OA
BRANCH 122 123
ATOM    123  C   UNL     1     147.741 158.875 190.826  0.00  0.00    +0.037 C 
ATOM    124  H   UNL     1     146.711 159.024 190.499  0.00  0.00    +0.052 HD
ATOM    125  H   UNL     1     147.898 159.429 191.752  0.00  0.00    +0.052 HD
ATOM    126  H   UNL     1     147.922 157.816 191.026  0.00  0.00    +0.052 HD
ENDBRANCH 122 123
ENDBRANCH 105 122
ENDBRANCH  99 105
ENDBRANCH  97  99
ENDBRANCH  94  97
ENDBRANCH  91  94
ENDBRANCH  85  91
ENDBRANCH  83  85
BRANCH  83 127
ATOM    127  O   UNL     1     142.715 162.915 189.728  0.00  0.00    -0.379 OA
BRANCH 127 128
ATOM    128  C   UNL     1     142.406 161.528 189.832  0.00  0.00    +0.037 C 
ATOM    129  H   UNL     1     141.602 161.246 189.147  0.00  0.00    +0.052 HD
ATOM    130  H   UNL     1     142.074 161.334 190.858  0.00  0.00    +0.052 HD
ATOM    131  H   UNL     1     143.289 160.917 189.644  0.00  0.00    +0.052 HD
ENDBRANCH 127 128
ENDBRANCH  83 127
ENDBRANCH  77  83
ENDBRANCH  25  77
BRANCH   9 132
ATOM    132  O   UNL     1     152.266 167.903 188.584  0.00  0.00    -0.384 OA
ATOM    133  H   UNL     1     151.376 167.644 188.284  0.00  0.00    +0.210 HD
ENDBRANCH   9 132
BRANCH  29 134
ATOM    134  O   UNL     1     143.363 169.252 186.017  0.00  0.00    -0.376 OA
BRANCH 134 135
ATOM    135  C   UNL     1     143.843 168.465 184.936  0.00  0.00    +0.037 C 
ATOM    136  H   UNL     1     143.057 167.793 184.576  0.00  0.00    +0.052 HD
ATOM    137  H   UNL     1     144.681 167.860 185.298  0.00  0.00    +0.052 HD
ATOM    138  H   UNL     1     144.201 169.096 184.117  0.00  0.00    +0.052 HD
ENDBRANCH 134 135
ENDBRANCH  29 134
BRANCH   6 139
ATOM    139  O   UNL     1     150.666 163.277 186.196  0.00  0.00    -0.379 OA
BRANCH 139 140
ATOM    140  C   UNL     1     151.592 162.212 186.004  0.00  0.00    +0.037 C 
ATOM    141  H   UNL     1     152.489 162.572 185.488  0.00  0.00    +0.052 HD
ATOM    142  H   UNL     1     151.110 161.455 185.378  0.00  0.00    +0.052 HD
ATOM    143  H   UNL     1     151.860 161.751 186.958  0.00  0.00    +0.052 HD
ENDBRANCH 139 140
ENDBRANCH   6 139
BRANCH  16 144
ATOM    144  O   UNL     1     152.501 166.203 193.417  0.00  0.00    -0.379 OA
BRANCH 144 145
ATOM    145  C   UNL     1     153.668 166.975 193.658  0.00  0.00    +0.037 C 
ATOM    146  H   UNL     1     154.152 166.668 194.587  0.00  0.00    +0.052 HD
ATOM    147  H   UNL     1     154.369 166.904 192.821  0.00  0.00    +0.052 HD
ATOM    148  H   UNL     1     153.364 168.019 193.767  0.00  0.00    +0.052 HD
ENDBRANCH 144 145
ENDBRANCH  16 144
BRANCH   4 149
ATOM    149  O   UNL     1     148.380 165.692 183.873  0.00  0.00    -0.376 OA
BRANCH 149 150
ATOM    150  C   UNL     1     149.034 164.910 182.881  0.00  0.00    +0.037 C 
ATOM    151  H   UNL     1     148.402 164.890 181.986  0.00  0.00    +0.052 HD
ATOM    152  H   UNL     1     149.996 165.359 182.611  0.00  0.00    +0.052 HD
ATOM    153  H   UNL     1     149.178 163.882 183.225  0.00  0.00    +0.052 HD
ENDBRANCH 149 150
ENDBRANCH   4 149
TORSDOF 33
ENDMDL
MODEL 6
REMARK VINA RESULT:      -4.5      2.323      6.567
REMARK  Name = Sphinxolide B_conf3
REMARK  33 active torsions:
REMARK  status: ('A' for Active; 'I' for Inactive)
REMARK    1  A    between atoms: C_1  and  C_2
REMARK    2  A    between atoms: C_5  and  O_67
REMARK    3  A    between atoms: C_7  and  O_65
REMARK    4  A    between atoms: C_8  and  C_64
REMARK    5  A    between atoms: C_10  and  O_63
REMARK    6  A    between atoms: C_17  and  O_61
REMARK    7  A    between atoms: C_19  and  C_60
REMARK    8  A    between atoms: C_26  and  C_37
REMARK    9  A    between atoms: C_27  and  C_36
REMARK   10  A    between atoms: C_30  and  O_34
REMARK   11  A    between atoms: C_32  and  O_33
REMARK   12  A    between atoms: O_34  and  C_35
REMARK   13  A    between atoms: C_37  and  C_38
REMARK   14  A    between atoms: C_37  and  C_39
REMARK   15  A    between atoms: C_39  and  C_40
REMARK   16  A    between atoms: C_39  and  O_58
REMARK   17  A    between atoms: C_40  and  C_41
REMARK   18  A    between atoms: C_40  and  C_42
REMARK   19  A    between atoms: C_42  and  C_43
REMARK   20  A    between atoms: C_43  and  C_44
REMARK   21  A    between atoms: C_44  and  C_46
REMARK   22  A    between atoms: C_46  and  C_47
REMARK   23  A    between atoms: C_46  and  C_48
REMARK   24  A    between atoms: C_48  and  C_49
REMARK   25  A    between atoms: C_48  and  O_56
REMARK   26  A    between atoms: C_49  and  C_50
REMARK   27  A    between atoms: C_51  and  N_52
REMARK   28  A    between atoms: N_52  and  C_53
REMARK   29  A    between atoms: O_56  and  C_57
REMARK   30  A    between atoms: O_58  and  C_59
REMARK   31  A    between atoms: O_61  and  C_62
REMARK   32  A    between atoms: O_65  and  C_66
REMARK   33  A    between atoms: O_67  and  C_68
REMARK                            x       y       z     vdW  Elec       q    Type
REMARK                         _______ _______ _______ _____ _____    ______ ____
ROOT
ATOM      1  C   UNL     1     147.851 168.482 188.134  0.00  0.00    +0.000 C 
ATOM      2  C   UNL     1     147.961 167.195 187.350  0.00  0.00    -0.080 C 
ATOM      3  C   UNL     1     148.573 167.107 186.157  0.00  0.00    -0.059 C 
ATOM      4  C   UNL     1     148.785 165.833 185.378  0.00  0.00    +0.079 C 
ATOM      5  C   UNL     1     150.281 165.594 185.075  0.00  0.00    +0.004 C 
ATOM      6  C   UNL     1     151.102 164.832 186.142  0.00  0.00    +0.067 C 
ATOM      7  C   UNL     1     151.182 165.572 187.515  0.00  0.00    +0.022 C 
ATOM      8  C   UNL     1     152.667 165.783 187.960  0.00  0.00    +0.138 C 
ATOM      9  C   UNL     1     152.915 166.867 189.031  0.00  0.00    +0.114 C 
ATOM     10  C   UNL     1     152.564 166.351 190.401  0.00  0.00    -0.029 C 
ATOM     11  C   UNL     1     152.810 165.047 190.645  0.00  0.00    +0.024 C 
ATOM     12  C   UNL     1     153.345 164.128 189.618  0.00  0.00    +0.332 C 
ATOM     13  O   UNL     1     153.787 163.030 189.928  0.00  0.00    -0.246 OA
ATOM     14  O   UNL     1     153.313 164.547 188.327  0.00  0.00    -0.455 OA
ATOM     15  C   UNL     1     152.031 167.357 191.406  0.00  0.00    -0.002 C 
ATOM     16  C   UNL     1     151.592 166.919 192.827  0.00  0.00    +0.066 C 
ATOM     17  C   UNL     1     150.295 166.055 192.830  0.00  0.00    -0.005 C 
ATOM     18  C   UNL     1     149.579 166.002 194.180  0.00  0.00    -0.070 C 
ATOM     19  C   UNL     1     148.246 166.053 194.386  0.00  0.00    -0.062 C 
ATOM     20  C   UNL     1     147.159 166.082 193.426  0.00  0.00    -0.055 C 
ATOM     21  C   UNL     1     145.889 166.015 193.860  0.00  0.00    +0.023 C 
ATOM     22  C   UNL     1     144.667 165.820 193.059  0.00  0.00    +0.332 C 
ATOM     23  O   UNL     1     143.634 165.439 193.594  0.00  0.00    -0.246 OA
ATOM     24  O   UNL     1     144.846 166.033 191.733  0.00  0.00    -0.457 OA
ATOM     25  C   UNL     1     143.811 165.486 190.864  0.00  0.00    +0.114 C 
ATOM     26  C   UNL     1     142.808 166.587 190.401  0.00  0.00    +0.012 C 
ATOM     27  C   UNL     1     143.470 167.772 189.731  0.00  0.00    -0.079 C 
ATOM     28  C   UNL     1     143.341 168.088 188.432  0.00  0.00    -0.059 C 
ATOM     29  C   UNL     1     144.000 169.264 187.758  0.00  0.00    +0.079 C 
ATOM     30  C   UNL     1     145.448 168.955 187.338  0.00  0.00    +0.004 C 
ATOM     31  C   UNL     1     146.398 168.819 188.532  0.00  0.00    +0.064 C 
ATOM     32  H   UNL     1     148.256 169.317 187.543  0.00  0.00    +0.037 HD
ATOM     33  H   UNL     1     147.547 166.301 187.812  0.00  0.00    +0.057 HD
ATOM     34  H   UNL     1     148.973 168.009 185.695  0.00  0.00    +0.059 HD
ATOM     35  H   UNL     1     148.358 164.959 185.884  0.00  0.00    +0.064 HD
ATOM     36  H   UNL     1     150.777 166.547 184.846  0.00  0.00    +0.032 HD
ATOM     37  H   UNL     1     150.337 165.007 184.147  0.00  0.00    +0.032 HD
ATOM     38  H   UNL     1     152.110 164.736 185.716  0.00  0.00    +0.060 HD
ATOM     39  H   UNL     1     150.802 166.586 187.356  0.00  0.00    +0.036 HD
ATOM     40  H   UNL     1     153.204 166.140 187.068  0.00  0.00    +0.077 HD
ATOM     41  H   UNL     1     153.985 167.118 189.055  0.00  0.00    +0.068 HD
ATOM     42  H   UNL     1     152.661 164.584 191.611  0.00  0.00    +0.069 HD
ATOM     43  H   UNL     1     152.807 168.127 191.520  0.00  0.00    +0.034 HD
ATOM     44  H   UNL     1     151.168 167.864 190.962  0.00  0.00    +0.034 HD
ATOM     45  H   UNL     1     151.377 167.835 193.397  0.00  0.00    +0.060 HD
ATOM     46  H   UNL     1     149.610 166.450 192.071  0.00  0.00    +0.034 HD
ATOM     47  H   UNL     1     150.537 165.023 192.553  0.00  0.00    +0.034 HD
ATOM     48  H   UNL     1     147.914 166.006 195.425  0.00  0.00    +0.062 HD
ATOM     49  H   UNL     1     147.387 166.065 192.367  0.00  0.00    +0.062 HD
ATOM     50  H   UNL     1     145.673 165.986 194.925  0.00  0.00    +0.069 HD
ATOM     51  H   UNL     1     143.235 164.751 191.437  0.00  0.00    +0.074 HD
ATOM     52  H   UNL     1     142.098 166.129 189.703  0.00  0.00    +0.038 HD
ATOM     53  H   UNL     1     144.087 168.399 190.374  0.00  0.00    +0.057 HD
ATOM     54  H   UNL     1     142.713 167.476 187.790  0.00  0.00    +0.059 HD
ATOM     55  H   UNL     1     143.950 170.135 188.421  0.00  0.00    +0.064 HD
ATOM     56  H   UNL     1     145.810 169.762 186.687  0.00  0.00    +0.032 HD
ATOM     57  H   UNL     1     145.459 168.049 186.723  0.00  0.00    +0.032 HD
ATOM     58  H   UNL     1     146.050 168.031 189.207  0.00  0.00    +0.060 HD
ENDROOT
BRANCH   1  59
ATOM     59  C   UNL     1     148.721 168.367 189.393  0.00  0.00    -0.057 C 
ATOM     60  H   UNL     1     148.298 168.939 190.227  0.00  0.00    +0.024 HD
ATOM     61  H   UNL     1     148.803 167.328 189.710  0.00  0.00    +0.024 HD
ATOM     62  H   UNL     1     149.736 168.737 189.212  0.00  0.00    +0.024 HD
ENDBRANCH   1  59
BRANCH  26  63
ATOM     63  C   UNL     1     141.963 167.119 191.567  0.00  0.00    -0.056 C 
ATOM     64  H   UNL     1     142.487 166.986 192.522  0.00  0.00    +0.024 HD
ATOM     65  H   UNL     1     141.771 168.189 191.447  0.00  0.00    +0.024 HD
ATOM     66  H   UNL     1     141.000 166.604 191.646  0.00  0.00    +0.024 HD
ENDBRANCH  26  63
BRANCH  18  67
ATOM     67  C   UNL     1     150.468 165.809 195.392  0.00  0.00    -0.043 C 
ATOM     68  H   UNL     1     150.698 164.746 195.529  0.00  0.00    +0.027 HD
ATOM     69  H   UNL     1     151.401 166.370 195.280  0.00  0.00    +0.027 HD
ATOM     70  H   UNL     1     149.993 166.147 196.319  0.00  0.00    +0.027 HD
ENDBRANCH  18  67
BRANCH   7  71
ATOM     71  C   UNL     1     150.292 164.907 188.574  0.00  0.00    -0.057 C 
ATOM     72  H   UNL     1     150.594 163.873 188.761  0.00  0.00    +0.023 HD
ATOM     73  H   UNL     1     150.340 165.427 189.536  0.00  0.00    +0.023 HD
ATOM     74  H   UNL     1     149.248 164.867 188.253  0.00  0.00    +0.023 HD
ENDBRANCH   7  71
BRANCH  31  75
ATOM     75  O   UNL     1     146.381 170.045 189.273  0.00  0.00    -0.391 OA
ATOM     76  H   UNL     1     147.056 170.635 188.892  0.00  0.00    +0.210 HD
ENDBRANCH  31  75
BRANCH  25  77
ATOM     77  C   UNL     1     144.523 164.718 189.705  0.00  0.00    +0.020 C 
ATOM     78  H   UNL     1     144.400 165.303 188.788  0.00  0.00    +0.036 HD
BRANCH  77  79
ATOM     79  C   UNL     1     146.053 164.688 189.920  0.00  0.00    -0.057 C 
ATOM     80  H   UNL     1     146.580 165.225 189.125  0.00  0.00    +0.023 HD
ATOM     81  H   UNL     1     146.426 163.660 189.943  0.00  0.00    +0.023 HD
ATOM     82  H   UNL     1     146.326 165.137 190.881  0.00  0.00    +0.023 HD
ENDBRANCH  77  79
BRANCH  77  83
ATOM     83  C   UNL     1     144.029 163.245 189.468  0.00  0.00    +0.067 C 
ATOM     84  H   UNL     1     144.709 162.553 189.984  0.00  0.00    +0.060 HD
BRANCH  83  85
ATOM     85  C   UNL     1     144.040 162.808 187.975  0.00  0.00    -0.017 C 
ATOM     86  H   UNL     1     143.220 162.101 187.826  0.00  0.00    +0.032 HD
BRANCH  85  87
ATOM     87  C   UNL     1     143.789 163.987 187.029  0.00  0.00    -0.060 C 
ATOM     88  H   UNL     1     142.721 164.099 186.818  0.00  0.00    +0.023 HD
ATOM     89  H   UNL     1     144.119 164.932 187.471  0.00  0.00    +0.023 HD
ATOM     90  H   UNL     1     144.322 163.865 186.081  0.00  0.00    +0.023 HD
ENDBRANCH  85  87
BRANCH  85  91
ATOM     91  C   UNL     1     145.310 162.013 187.558  0.00  0.00    -0.041 C 
ATOM     92  H   UNL     1     146.085 162.719 187.236  0.00  0.00    +0.027 HD
ATOM     93  H   UNL     1     145.056 161.434 186.658  0.00  0.00    +0.027 HD
BRANCH  91  94
ATOM     94  C   UNL     1     145.894 161.031 188.576  0.00  0.00    +0.007 C 
ATOM     95  H   UNL     1     145.235 160.996 189.453  0.00  0.00    +0.034 HD
ATOM     96  H   UNL     1     146.867 161.382 188.928  0.00  0.00    +0.034 HD
BRANCH  94  97
ATOM     97  C   UNL     1     146.025 159.598 188.091  0.00  0.00    +0.139 C 
ATOM     98  O   UNL     1     146.520 159.326 186.997  0.00  0.00    -0.297 OA
BRANCH  97  99
ATOM     99  C   UNL     1     145.472 158.516 189.011  0.00  0.00    +0.041 C 
ATOM    100  H   UNL     1     144.740 157.942 188.430  0.00  0.00    +0.040 HD
BRANCH  99 101
ATOM    101  C   UNL     1     144.702 159.160 190.161  0.00  0.00    -0.053 C 
ATOM    102  H   UNL     1     144.329 158.390 190.845  0.00  0.00    +0.024 HD
ATOM    103  H   UNL     1     143.830 159.720 189.810  0.00  0.00    +0.024 HD
ATOM    104  H   UNL     1     145.344 159.837 190.734  0.00  0.00    +0.024 HD
ENDBRANCH  99 101
BRANCH  99 105
ATOM    105  C   UNL     1     146.596 157.550 189.444  0.00  0.00    +0.071 C 
ATOM    106  H   UNL     1     147.053 157.101 188.550  0.00  0.00    +0.061 HD
BRANCH 105 107
ATOM    107  C   UNL     1     147.712 158.213 190.281  0.00  0.00    -0.006 C 
ATOM    108  H   UNL     1     147.894 157.637 191.197  0.00  0.00    +0.033 HD
ATOM    109  H   UNL     1     147.423 159.225 190.583  0.00  0.00    +0.033 HD
BRANCH 107 110
ATOM    110  C   UNL     1     149.016 158.255 189.516  0.00  0.00    -0.067 C 
ATOM    111  C   UNL     1     149.598 159.397 189.126  0.00  0.00    -0.005 C 
ATOM    112  H   UNL     1     149.440 157.278 189.300  0.00  0.00    +0.059 HD
ATOM    113  H   UNL     1     149.110 160.339 189.376  0.00  0.00    +0.078 HD
BRANCH 111 114
ATOM    114  N   UNL     1     150.780 159.537 188.413  0.00  0.00    -0.284 N 
ATOM    115  C   UNL     1     151.560 160.685 188.369  0.00  0.00    +0.206 C 
ATOM    116  O   UNL     1     152.619 160.813 187.764  0.00  0.00    -0.279 OA
ATOM    117  H   UNL     1     151.153 161.523 188.951  0.00  0.00    +0.126 HD
BRANCH 114 118
ATOM    118  C   UNL     1     151.242 158.372 187.665  0.00  0.00    +0.007 C 
ATOM    119  H   UNL     1     150.955 157.466 188.209  0.00  0.00    +0.043 HD
ATOM    120  H   UNL     1     152.328 158.370 187.536  0.00  0.00    +0.043 HD
ATOM    121  H   UNL     1     150.776 158.370 186.675  0.00  0.00    +0.043 HD
ENDBRANCH 114 118
ENDBRANCH 111 114
ENDBRANCH 107 110
ENDBRANCH 105 107
BRANCH 105 122
ATOM    122  O   UNL     1     146.019 156.506 190.258  0.00  0.00    -0.379 OA
BRANCH 122 123
ATOM    123  C   UNL     1     145.089 155.692 189.559  0.00  0.00    +0.037 C 
ATOM    124  H   UNL     1     144.166 155.578 190.128  0.00  0.00    +0.052 HD
ATOM    125  H   UNL     1     145.536 154.706 189.417  0.00  0.00    +0.052 HD
ATOM    126  H   UNL     1     144.873 156.114 188.574  0.00  0.00    +0.052 HD
ENDBRANCH 122 123
ENDBRANCH 105 122
ENDBRANCH  99 105
ENDBRANCH  97  99
ENDBRANCH  94  97
ENDBRANCH  91  94
ENDBRANCH  85  91
ENDBRANCH  83  85
BRANCH  83 127
ATOM    127  O   UNL     1     142.703 163.033 189.971  0.00  0.00    -0.379 OA
BRANCH 127 128
ATOM    128  C   UNL     1     142.182 161.734 189.701  0.00  0.00    +0.037 C 
ATOM    129  H   UNL     1     142.176 161.521 188.630  0.00  0.00    +0.052 HD
ATOM    130  H   UNL     1     141.149 161.705 190.069  0.00  0.00    +0.052 HD
ATOM    131  H   UNL     1     142.748 160.969 190.233  0.00  0.00    +0.052 HD
ENDBRANCH 127 128
ENDBRANCH  83 127
ENDBRANCH  77  83
ENDBRANCH  25  77
BRANCH   9 132
ATOM    132  O   UNL     1     152.216 168.067 188.737  0.00  0.00    -0.384 OA
ATOM    133  H   UNL     1     151.994 168.051 187.789  0.00  0.00    +0.210 HD
ENDBRANCH   9 132
BRANCH  29 134
ATOM    134  O   UNL     1     143.221 169.517 186.579  0.00  0.00    -0.376 OA
BRANCH 134 135
ATOM    135  C   UNL     1     143.945 170.206 185.570  0.00  0.00    +0.037 C 
ATOM    136  H   UNL     1     144.842 170.670 185.995  0.00  0.00    +0.052 HD
ATOM    137  H   UNL     1     143.304 170.995 185.165  0.00  0.00    +0.052 HD
ATOM    138  H   UNL     1     144.224 169.533 184.753  0.00  0.00    +0.052 HD
ENDBRANCH 134 135
ENDBRANCH  29 134
BRANCH   6 139
ATOM    139  O   UNL     1     150.509 163.531 186.252  0.00  0.00    -0.379 OA
BRANCH 139 140
ATOM    140  C   UNL     1     150.938 162.630 185.236  0.00  0.00    +0.037 C 
ATOM    141  H   UNL     1     150.327 162.749 184.334  0.00  0.00    +0.052 HD
ATOM    142  H   UNL     1     150.808 161.610 185.612  0.00  0.00    +0.052 HD
ATOM    143  H   UNL     1     151.995 162.780 185.002  0.00  0.00    +0.052 HD
ENDBRANCH 139 140
ENDBRANCH   6 139
BRANCH  16 144
ATOM    144  O   UNL     1     152.639 166.195 193.493  0.00  0.00    -0.379 OA
BRANCH 144 145
ATOM    145  C   UNL     1     153.834 166.942 193.674  0.00  0.00    +0.037 C 
ATOM    146  H   UNL     1     154.384 166.590 194.549  0.00  0.00    +0.052 HD
ATOM    147  H   UNL     1     154.465 166.899 192.783  0.00  0.00    +0.052 HD
ATOM    148  H   UNL     1     153.554 167.984 193.851  0.00  0.00    +0.052 HD
ENDBRANCH 144 145
ENDBRANCH  16 144
BRANCH   4 149
ATOM    149  O   UNL     1     148.139 166.030 184.110  0.00  0.00    -0.376 OA
BRANCH 149 150
ATOM    150  C   UNL     1     148.677 165.198 183.089  0.00  0.00    +0.037 C 
ATOM    151  H   UNL     1     148.675 164.164 183.450  0.00  0.00    +0.052 HD
ATOM    152  H   UNL     1     148.058 165.249 182.187  0.00  0.00    +0.052 HD
ATOM    153  H   UNL     1     149.709 165.480 182.859  0.00  0.00    +0.052 HD
ENDBRANCH 149 150
ENDBRANCH   4 149
TORSDOF 33
ENDMDL
MODEL 7
REMARK VINA RESULT:      -4.4      2.463      4.289
REMARK  Name = Sphinxolide B_conf3
REMARK  33 active torsions:
REMARK  status: ('A' for Active; 'I' for Inactive)
REMARK    1  A    between atoms: C_1  and  C_2
REMARK    2  A    between atoms: C_5  and  O_67
REMARK    3  A    between atoms: C_7  and  O_65
REMARK    4  A    between atoms: C_8  and  C_64
REMARK    5  A    between atoms: C_10  and  O_63
REMARK    6  A    between atoms: C_17  and  O_61
REMARK    7  A    between atoms: C_19  and  C_60
REMARK    8  A    between atoms: C_26  and  C_37
REMARK    9  A    between atoms: C_27  and  C_36
REMARK   10  A    between atoms: C_30  and  O_34
REMARK   11  A    between atoms: C_32  and  O_33
REMARK   12  A    between atoms: O_34  and  C_35
REMARK   13  A    between atoms: C_37  and  C_38
REMARK   14  A    between atoms: C_37  and  C_39
REMARK   15  A    between atoms: C_39  and  C_40
REMARK   16  A    between atoms: C_39  and  O_58
REMARK   17  A    between atoms: C_40  and  C_41
REMARK   18  A    between atoms: C_40  and  C_42
REMARK   19  A    between atoms: C_42  and  C_43
REMARK   20  A    between atoms: C_43  and  C_44
REMARK   21  A    between atoms: C_44  and  C_46
REMARK   22  A    between atoms: C_46  and  C_47
REMARK   23  A    between atoms: C_46  and  C_48
REMARK   24  A    between atoms: C_48  and  C_49
REMARK   25  A    between atoms: C_48  and  O_56
REMARK   26  A    between atoms: C_49  and  C_50
REMARK   27  A    between atoms: C_51  and  N_52
REMARK   28  A    between atoms: N_52  and  C_53
REMARK   29  A    between atoms: O_56  and  C_57
REMARK   30  A    between atoms: O_58  and  C_59
REMARK   31  A    between atoms: O_61  and  C_62
REMARK   32  A    between atoms: O_65  and  C_66
REMARK   33  A    between atoms: O_67  and  C_68
REMARK                            x       y       z     vdW  Elec       q    Type
REMARK                         _______ _______ _______ _____ _____    ______ ____
ROOT
ATOM      1  C   UNL     1     148.259 166.863 185.702  0.00  0.00    +0.000 C 
ATOM      2  C   UNL     1     147.320 165.742 186.085  0.00  0.00    -0.080 C 
ATOM      3  C   UNL     1     146.842 164.846 185.204  0.00  0.00    -0.059 C 
ATOM      4  C   UNL     1     145.977 163.660 185.551  0.00  0.00    +0.079 C 
ATOM      5  C   UNL     1     146.613 162.334 185.080  0.00  0.00    +0.004 C 
ATOM      6  C   UNL     1     147.592 161.639 186.055  0.00  0.00    +0.067 C 
ATOM      7  C   UNL     1     148.861 162.489 186.378  0.00  0.00    +0.022 C 
ATOM      8  C   UNL     1     150.172 161.694 186.066  0.00  0.00    +0.138 C 
ATOM      9  C   UNL     1     151.460 162.530 185.903  0.00  0.00    +0.114 C 
ATOM     10  C   UNL     1     152.007 162.932 187.247  0.00  0.00    -0.029 C 
ATOM     11  C   UNL     1     151.862 162.047 188.256  0.00  0.00    +0.024 C 
ATOM     12  C   UNL     1     151.153 160.761 188.095  0.00  0.00    +0.332 C 
ATOM     13  O   UNL     1     151.250 159.881 188.941  0.00  0.00    -0.246 OA
ATOM     14  O   UNL     1     150.387 160.603 186.985  0.00  0.00    -0.455 OA
ATOM     15  C   UNL     1     152.734 164.263 187.332  0.00  0.00    -0.002 C 
ATOM     16  C   UNL     1     153.290 164.792 188.678  0.00  0.00    +0.066 C 
ATOM     17  C   UNL     1     152.173 165.207 189.683  0.00  0.00    -0.005 C 
ATOM     18  C   UNL     1     152.645 166.145 190.794  0.00  0.00    -0.070 C 
ATOM     19  C   UNL     1     151.975 167.208 191.288  0.00  0.00    -0.062 C 
ATOM     20  C   UNL     1     150.641 167.688 190.982  0.00  0.00    -0.055 C 
ATOM     21  C   UNL     1     150.126 168.711 191.687  0.00  0.00    +0.023 C 
ATOM     22  C   UNL     1     148.737 169.206 191.682  0.00  0.00    +0.332 C 
ATOM     23  O   UNL     1     148.329 169.901 192.602  0.00  0.00    -0.246 OA
ATOM     24  O   UNL     1     148.006 168.760 190.632  0.00  0.00    -0.457 OA
ATOM     25  C   UNL     1     146.560 168.884 190.779  0.00  0.00    +0.114 C 
ATOM     26  C   UNL     1     146.008 170.119 190.001  0.00  0.00    +0.012 C 
ATOM     27  C   UNL     1     146.381 170.133 188.535  0.00  0.00    -0.079 C 
ATOM     28  C   UNL     1     145.511 169.981 187.522  0.00  0.00    -0.059 C 
ATOM     29  C   UNL     1     145.877 169.990 186.060  0.00  0.00    +0.079 C 
ATOM     30  C   UNL     1     146.377 168.617 185.578  0.00  0.00    +0.004 C 
ATOM     31  C   UNL     1     147.750 168.249 186.151  0.00  0.00    +0.064 C 
ATOM     32  H   UNL     1     148.400 166.876 184.611  0.00  0.00    +0.037 HD
ATOM     33  H   UNL     1     147.062 165.655 187.138  0.00  0.00    +0.057 HD
ATOM     34  H   UNL     1     147.094 164.948 184.149  0.00  0.00    +0.059 HD
ATOM     35  H   UNL     1     145.748 163.610 186.623  0.00  0.00    +0.064 HD
ATOM     36  H   UNL     1     147.106 162.475 184.108  0.00  0.00    +0.032 HD
ATOM     37  H   UNL     1     145.794 161.627 184.890  0.00  0.00    +0.032 HD
ATOM     38  H   UNL     1     147.891 160.709 185.550  0.00  0.00    +0.060 HD
ATOM     39  H   UNL     1     148.878 163.324 185.670  0.00  0.00    +0.036 HD
ATOM     40  H   UNL     1     150.016 161.223 185.085  0.00  0.00    +0.077 HD
ATOM     41  H   UNL     1     152.234 161.918 185.420  0.00  0.00    +0.068 HD
ATOM     42  H   UNL     1     152.274 162.199 189.244  0.00  0.00    +0.069 HD
ATOM     43  H   UNL     1     153.573 164.207 186.624  0.00  0.00    +0.034 HD
ATOM     44  H   UNL     1     152.069 165.043 186.946  0.00  0.00    +0.034 HD
ATOM     45  H   UNL     1     153.880 165.693 188.455  0.00  0.00    +0.060 HD
ATOM     46  H   UNL     1     151.361 165.685 189.124  0.00  0.00    +0.034 HD
ATOM     47  H   UNL     1     151.761 164.315 190.168  0.00  0.00    +0.034 HD
ATOM     48  H   UNL     1     152.473 167.768 192.082  0.00  0.00    +0.062 HD
ATOM     49  H   UNL     1     150.042 167.157 190.252  0.00  0.00    +0.062 HD
ATOM     50  H   UNL     1     150.721 169.206 192.450  0.00  0.00    +0.069 HD
ATOM     51  H   UNL     1     146.335 169.048 191.838  0.00  0.00    +0.074 HD
ATOM     52  H   UNL     1     144.915 170.120 190.096  0.00  0.00    +0.038 HD
ATOM     53  H   UNL     1     147.438 170.282 188.313  0.00  0.00    +0.057 HD
ATOM     54  H   UNL     1     144.455 169.848 187.736  0.00  0.00    +0.059 HD
ATOM     55  H   UNL     1     146.618 170.776 185.877  0.00  0.00    +0.064 HD
ATOM     56  H   UNL     1     146.440 168.624 184.482  0.00  0.00    +0.032 HD
ATOM     57  H   UNL     1     145.632 167.854 185.827  0.00  0.00    +0.032 HD
ATOM     58  H   UNL     1     147.719 168.251 187.244  0.00  0.00    +0.060 HD
ENDROOT
BRANCH   1  59
ATOM     59  C   UNL     1     149.635 166.588 186.324  0.00  0.00    -0.057 C 
ATOM     60  H   UNL     1     149.607 165.720 186.992  0.00  0.00    +0.024 HD
ATOM     61  H   UNL     1     150.374 166.388 185.548  0.00  0.00    +0.024 HD
ATOM     62  H   UNL     1     149.989 167.447 186.902  0.00  0.00    +0.024 HD
ENDBRANCH   1  59
BRANCH  26  63
ATOM     63  C   UNL     1     146.482 171.443 190.618  0.00  0.00    -0.056 C 
ATOM     64  H   UNL     1     145.690 171.896 191.228  0.00  0.00    +0.024 HD
ATOM     65  H   UNL     1     147.342 171.276 191.273  0.00  0.00    +0.024 HD
ATOM     66  H   UNL     1     146.768 172.174 189.854  0.00  0.00    +0.024 HD
ENDBRANCH  26  63
BRANCH  18  67
ATOM     67  C   UNL     1     153.972 165.794 191.436  0.00  0.00    -0.043 C 
ATOM     68  H   UNL     1     153.845 164.960 192.138  0.00  0.00    +0.027 HD
ATOM     69  H   UNL     1     154.708 165.518 190.675  0.00  0.00    +0.027 HD
ATOM     70  H   UNL     1     154.392 166.625 192.012  0.00  0.00    +0.027 HD
ENDBRANCH  18  67
BRANCH   7  71
ATOM     71  C   UNL     1     148.803 163.085 187.792  0.00  0.00    -0.057 C 
ATOM     72  H   UNL     1     149.435 163.973 187.880  0.00  0.00    +0.023 HD
ATOM     73  H   UNL     1     147.789 163.392 188.067  0.00  0.00    +0.023 HD
ATOM     74  H   UNL     1     149.166 162.376 188.541  0.00  0.00    +0.023 HD
ENDBRANCH   7  71
BRANCH  31  75
ATOM     75  O   UNL     1     148.694 169.252 185.755  0.00  0.00    -0.391 OA
ATOM     76  H   UNL     1     148.492 169.510 184.838  0.00  0.00    +0.210 HD
ENDBRANCH  31  75
BRANCH  25  77
ATOM     77  C   UNL     1     145.923 167.516 190.374  0.00  0.00    +0.020 C 
ATOM     78  H   UNL     1     145.140 167.715 189.635  0.00  0.00    +0.036 HD
BRANCH  77  79
ATOM     79  C   UNL     1     146.938 166.641 189.606  0.00  0.00    -0.057 C 
ATOM     80  H   UNL     1     147.705 166.236 190.274  0.00  0.00    +0.023 HD
ATOM     81  H   UNL     1     147.438 167.217 188.820  0.00  0.00    +0.023 HD
ATOM     82  H   UNL     1     146.440 165.805 189.104  0.00  0.00    +0.023 HD
ENDBRANCH  77  79
BRANCH  77  83
ATOM     83  C   UNL     1     145.336 166.669 191.559  0.00  0.00    +0.067 C 
ATOM     84  H   UNL     1     145.602 165.613 191.409  0.00  0.00    +0.060 HD
BRANCH  83  85
ATOM     85  C   UNL     1     143.783 166.701 191.650  0.00  0.00    -0.017 C 
ATOM     86  H   UNL     1     143.401 165.779 191.203  0.00  0.00    +0.032 HD
BRANCH  85  87
ATOM     87  C   UNL     1     143.293 166.729 193.101  0.00  0.00    -0.060 C 
ATOM     88  H   UNL     1     143.963 166.159 193.752  0.00  0.00    +0.023 HD
ATOM     89  H   UNL     1     143.269 167.749 193.495  0.00  0.00    +0.023 HD
ATOM     90  H   UNL     1     142.283 166.318 193.193  0.00  0.00    +0.023 HD
ENDBRANCH  85  87
BRANCH  85  91
ATOM     91  C   UNL     1     143.123 167.832 190.811  0.00  0.00    -0.041 C 
ATOM     92  H   UNL     1     142.267 167.419 190.264  0.00  0.00    +0.027 HD
ATOM     93  H   UNL     1     143.843 168.131 190.035  0.00  0.00    +0.027 HD
BRANCH  91  94
ATOM     94  C   UNL     1     142.701 169.104 191.549  0.00  0.00    +0.007 C 
ATOM     95  H   UNL     1     143.513 169.840 191.480  0.00  0.00    +0.034 HD
ATOM     96  H   UNL     1     142.555 168.897 192.612  0.00  0.00    +0.034 HD
BRANCH  94  97
ATOM     97  C   UNL     1     141.463 169.791 190.999  0.00  0.00    +0.139 C 
ATOM     98  O   UNL     1     140.659 169.198 190.277  0.00  0.00    -0.297 OA
BRANCH  97  99
ATOM     99  C   UNL     1     141.290 171.263 191.351  0.00  0.00    +0.041 C 
ATOM    100  H   UNL     1     141.323 171.338 192.445  0.00  0.00    +0.040 HD
BRANCH  99 101
ATOM    101  C   UNL     1     139.903 171.736 190.928  0.00  0.00    -0.053 C 
ATOM    102  H   UNL     1     139.969 172.337 190.015  0.00  0.00    +0.024 HD
ATOM    103  H   UNL     1     139.433 172.367 191.688  0.00  0.00    +0.024 HD
ATOM    104  H   UNL     1     139.242 170.886 190.723  0.00  0.00    +0.024 HD
ENDBRANCH  99 101
BRANCH  99 105
ATOM    105  C   UNL     1     142.461 172.095 190.783  0.00  0.00    +0.071 C 
ATOM    106  H   UNL     1     143.392 171.805 191.292  0.00  0.00    +0.061 HD
BRANCH 105 107
ATOM    107  C   UNL     1     142.667 171.939 189.260  0.00  0.00    -0.006 C 
ATOM    108  H   UNL     1     141.728 172.130 188.728  0.00  0.00    +0.033 HD
ATOM    109  H   UNL     1     142.982 170.920 189.014  0.00  0.00    +0.033 HD
BRANCH 107 110
ATOM    110  C   UNL     1     143.681 172.934 188.743  0.00  0.00    -0.067 C 
ATOM    111  C   UNL     1     143.818 173.230 187.443  0.00  0.00    -0.005 C 
ATOM    112  H   UNL     1     144.300 173.385 189.514  0.00  0.00    +0.059 HD
ATOM    113  H   UNL     1     143.164 172.733 186.727  0.00  0.00    +0.078 HD
BRANCH 111 114
ATOM    114  N   UNL     1     144.722 174.114 186.874  0.00  0.00    -0.284 N 
ATOM    115  C   UNL     1     144.442 175.424 186.505  0.00  0.00    +0.206 C 
ATOM    116  O   UNL     1     145.239 176.222 186.024  0.00  0.00    -0.279 OA
ATOM    117  H   UNL     1     143.401 175.725 186.687  0.00  0.00    +0.126 HD
BRANCH 114 118
ATOM    118  C   UNL     1     146.081 173.625 186.664  0.00  0.00    +0.007 C 
ATOM    119  H   UNL     1     146.216 173.400 185.600  0.00  0.00    +0.043 HD
ATOM    120  H   UNL     1     146.287 172.718 187.239  0.00  0.00    +0.043 HD
ATOM    121  H   UNL     1     146.794 174.397 186.969  0.00  0.00    +0.043 HD
ENDBRANCH 114 118
ENDBRANCH 111 114
ENDBRANCH 107 110
ENDBRANCH 105 107
BRANCH 105 122
ATOM    122  O   UNL     1     142.197 173.493 191.034  0.00  0.00    -0.379 OA
BRANCH 122 123
ATOM    123  C   UNL     1     142.922 174.016 192.138  0.00  0.00    +0.037 C 
ATOM    124  H   UNL     1     143.702 173.323 192.456  0.00  0.00    +0.052 HD
ATOM    125  H   UNL     1     142.227 174.163 192.966  0.00  0.00    +0.052 HD
ATOM    126  H   UNL     1     143.361 174.985 191.884  0.00  0.00    +0.052 HD
ENDBRANCH 122 123
ENDBRANCH 105 122
ENDBRANCH  99 105
ENDBRANCH  97  99
ENDBRANCH  94  97
ENDBRANCH  91  94
ENDBRANCH  85  91
ENDBRANCH  83  85
BRANCH  83 127
ATOM    127  O   UNL     1     145.852 167.086 192.830  0.00  0.00    -0.379 OA
BRANCH 127 128
ATOM    128  C   UNL     1     146.906 166.265 193.326  0.00  0.00    +0.037 C 
ATOM    129  H   UNL     1     147.883 166.724 193.157  0.00  0.00    +0.052 HD
ATOM    130  H   UNL     1     146.870 165.311 192.788  0.00  0.00    +0.052 HD
ATOM    131  H   UNL     1     146.770 166.057 194.388  0.00  0.00    +0.052 HD
ENDBRANCH 127 128
ENDBRANCH  83 127
ENDBRANCH  77  83
ENDBRANCH  25  77
BRANCH   9 132
ATOM    132  O   UNL     1     151.250 163.662 185.073  0.00  0.00    -0.384 OA
ATOM    133  H   UNL     1     150.612 164.242 185.526  0.00  0.00    +0.210 HD
ENDBRANCH   9 132
BRANCH  29 134
ATOM    134  O   UNL     1     144.663 170.310 185.363  0.00  0.00    -0.376 OA
BRANCH 134 135
ATOM    135  C   UNL     1     143.504 169.781 185.990  0.00  0.00    +0.037 C 
ATOM    136  H   UNL     1     143.541 168.686 185.996  0.00  0.00    +0.052 HD
ATOM    137  H   UNL     1     142.627 170.096 185.415  0.00  0.00    +0.052 HD
ATOM    138  H   UNL     1     143.400 170.158 187.012  0.00  0.00    +0.052 HD
ENDBRANCH 134 135
ENDBRANCH  29 134
BRANCH   6 139
ATOM    139  O   UNL     1     146.832 161.317 187.228  0.00  0.00    -0.379 OA
BRANCH 139 140
ATOM    140  C   UNL     1     146.855 159.930 187.549  0.00  0.00    +0.037 C 
ATOM    141  H   UNL     1     147.004 159.786 188.625  0.00  0.00    +0.052 HD
ATOM    142  H   UNL     1     147.697 159.474 187.017  0.00  0.00    +0.052 HD
ATOM    143  H   UNL     1     145.934 159.438 187.223  0.00  0.00    +0.052 HD
ENDBRANCH 139 140
ENDBRANCH   6 139
BRANCH  16 144
ATOM    144  O   UNL     1     154.146 163.822 189.304  0.00  0.00    -0.379 OA
BRANCH 144 145
ATOM    145  C   UNL     1     155.417 163.689 188.684  0.00  0.00    +0.037 C 
ATOM    146  H   UNL     1     155.397 162.910 187.919  0.00  0.00    +0.052 HD
ATOM    147  H   UNL     1     155.749 164.638 188.255  0.00  0.00    +0.052 HD
ATOM    148  H   UNL     1     156.135 163.386 189.452  0.00  0.00    +0.052 HD
ENDBRANCH 144 145
ENDBRANCH  16 144
BRANCH   4 149
ATOM    149  O   UNL     1     144.763 163.820 184.798  0.00  0.00    -0.376 OA
BRANCH 149 150
ATOM    150  C   UNL     1     143.645 163.211 185.431  0.00  0.00    +0.037 C 
ATOM    151  H   UNL     1     142.992 162.799 184.655  0.00  0.00    +0.052 HD
ATOM    152  H   UNL     1     143.971 162.390 186.078  0.00  0.00    +0.052 HD
ATOM    153  H   UNL     1     143.074 163.946 186.007  0.00  0.00    +0.052 HD
ENDBRANCH 149 150
ENDBRANCH   4 149
TORSDOF 33
ENDMDL
MODEL 8
REMARK VINA RESULT:      -4.4      3.098      9.697
REMARK  Name = Sphinxolide B_conf3
REMARK  33 active torsions:
REMARK  status: ('A' for Active; 'I' for Inactive)
REMARK    1  A    between atoms: C_1  and  C_2
REMARK    2  A    between atoms: C_5  and  O_67
REMARK    3  A    between atoms: C_7  and  O_65
REMARK    4  A    between atoms: C_8  and  C_64
REMARK    5  A    between atoms: C_10  and  O_63
REMARK    6  A    between atoms: C_17  and  O_61
REMARK    7  A    between atoms: C_19  and  C_60
REMARK    8  A    between atoms: C_26  and  C_37
REMARK    9  A    between atoms: C_27  and  C_36
REMARK   10  A    between atoms: C_30  and  O_34
REMARK   11  A    between atoms: C_32  and  O_33
REMARK   12  A    between atoms: O_34  and  C_35
REMARK   13  A    between atoms: C_37  and  C_38
REMARK   14  A    between atoms: C_37  and  C_39
REMARK   15  A    between atoms: C_39  and  C_40
REMARK   16  A    between atoms: C_39  and  O_58
REMARK   17  A    between atoms: C_40  and  C_41
REMARK   18  A    between atoms: C_40  and  C_42
REMARK   19  A    between atoms: C_42  and  C_43
REMARK   20  A    between atoms: C_43  and  C_44
REMARK   21  A    between atoms: C_44  and  C_46
REMARK   22  A    between atoms: C_46  and  C_47
REMARK   23  A    between atoms: C_46  and  C_48
REMARK   24  A    between atoms: C_48  and  C_49
REMARK   25  A    between atoms: C_48  and  O_56
REMARK   26  A    between atoms: C_49  and  C_50
REMARK   27  A    between atoms: C_51  and  N_52
REMARK   28  A    between atoms: N_52  and  C_53
REMARK   29  A    between atoms: O_56  and  C_57
REMARK   30  A    between atoms: O_58  and  C_59
REMARK   31  A    between atoms: O_61  and  C_62
REMARK   32  A    between atoms: O_65  and  C_66
REMARK   33  A    between atoms: O_67  and  C_68
REMARK                            x       y       z     vdW  Elec       q    Type
REMARK                         _______ _______ _______ _____ _____    ______ ____
ROOT
ATOM      1  C   UNL     1     148.030 168.763 186.965  0.00  0.00    +0.000 C 
ATOM      2  C   UNL     1     147.083 168.922 188.133  0.00  0.00    -0.080 C 
ATOM      3  C   UNL     1     147.252 169.839 189.100  0.00  0.00    -0.059 C 
ATOM      4  C   UNL     1     146.292 170.096 190.235  0.00  0.00    +0.079 C 
ATOM      5  C   UNL     1     145.825 171.567 190.263  0.00  0.00    +0.004 C 
ATOM      6  C   UNL     1     144.586 171.929 189.410  0.00  0.00    +0.067 C 
ATOM      7  C   UNL     1     144.795 171.703 187.879  0.00  0.00    +0.022 C 
ATOM      8  C   UNL     1     144.497 173.008 187.067  0.00  0.00    +0.138 C 
ATOM      9  C   UNL     1     145.080 173.076 185.639  0.00  0.00    +0.114 C 
ATOM     10  C   UNL     1     144.240 172.272 184.682  0.00  0.00    -0.029 C 
ATOM     11  C   UNL     1     142.908 172.256 184.902  0.00  0.00    +0.024 C 
ATOM     12  C   UNL     1     142.280 172.939 186.053  0.00  0.00    +0.332 C 
ATOM     13  O   UNL     1     141.069 173.119 186.091  0.00  0.00    -0.246 OA
ATOM     14  O   UNL     1     143.094 173.344 187.061  0.00  0.00    -0.455 OA
ATOM     15  C   UNL     1     144.954 171.609 183.518  0.00  0.00    -0.002 C 
ATOM     16  C   UNL     1     144.190 170.719 182.506  0.00  0.00    +0.066 C 
ATOM     17  C   UNL     1     143.699 169.373 183.121  0.00  0.00    -0.005 C 
ATOM     18  C   UNL     1     143.374 168.293 182.088  0.00  0.00    -0.070 C 
ATOM     19  C   UNL     1     143.663 166.978 182.182  0.00  0.00    -0.062 C 
ATOM     20  C   UNL     1     144.257 166.233 183.276  0.00  0.00    -0.055 C 
ATOM     21  C   UNL     1     144.349 164.895 183.195  0.00  0.00    +0.023 C 
ATOM     22  C   UNL     1     144.717 163.947 184.263  0.00  0.00    +0.332 C 
ATOM     23  O   UNL     1     144.433 162.761 184.157  0.00  0.00    -0.246 OA
ATOM     24  O   UNL     1     145.306 164.534 185.332  0.00  0.00    -0.457 OA
ATOM     25  C   UNL     1     145.330 163.734 186.551  0.00  0.00    +0.114 C 
ATOM     26  C   UNL     1     146.724 163.069 186.775  0.00  0.00    +0.012 C 
ATOM     27  C   UNL     1     147.874 164.053 186.780  0.00  0.00    -0.079 C 
ATOM     28  C   UNL     1     148.620 164.354 187.856  0.00  0.00    -0.059 C 
ATOM     29  C   UNL     1     149.764 165.334 187.868  0.00  0.00    +0.079 C 
ATOM     30  C   UNL     1     149.283 166.786 188.038  0.00  0.00    +0.004 C 
ATOM     31  C   UNL     1     148.546 167.317 186.806  0.00  0.00    +0.064 C 
ATOM     32  H   UNL     1     148.894 169.433 187.090  0.00  0.00    +0.037 HD
ATOM     33  H   UNL     1     146.210 168.274 188.149  0.00  0.00    +0.057 HD
ATOM     34  H   UNL     1     148.137 170.475 189.085  0.00  0.00    +0.059 HD
ATOM     35  H   UNL     1     145.425 169.424 190.207  0.00  0.00    +0.064 HD
ATOM     36  H   UNL     1     146.657 172.233 189.996  0.00  0.00    +0.032 HD
ATOM     37  H   UNL     1     145.579 171.813 191.306  0.00  0.00    +0.032 HD
ATOM     38  H   UNL     1     144.404 172.995 189.603  0.00  0.00    +0.060 HD
ATOM     39  H   UNL     1     145.863 171.528 187.722  0.00  0.00    +0.036 HD
ATOM     40  H   UNL     1     144.991 173.825 187.613  0.00  0.00    +0.077 HD
ATOM     41  H   UNL     1     145.053 174.115 185.283  0.00  0.00    +0.068 HD
ATOM     42  H   UNL     1     142.202 171.771 184.243  0.00  0.00    +0.069 HD
ATOM     43  H   UNL     1     145.442 172.414 182.951  0.00  0.00    +0.034 HD
ATOM     44  H   UNL     1     145.766 170.992 183.918  0.00  0.00    +0.034 HD
ATOM     45  H   UNL     1     144.891 170.472 181.695  0.00  0.00    +0.060 HD
ATOM     46  H   UNL     1     144.469 169.001 183.806  0.00  0.00    +0.034 HD
ATOM     47  H   UNL     1     142.789 169.543 183.705  0.00  0.00    +0.034 HD
ATOM     48  H   UNL     1     143.356 166.353 181.340  0.00  0.00    +0.062 HD
ATOM     49  H   UNL     1     144.536 166.757 184.182  0.00  0.00    +0.062 HD
ATOM     50  H   UNL     1     144.023 164.375 182.298  0.00  0.00    +0.069 HD
ATOM     51  H   UNL     1     144.604 162.922 186.444  0.00  0.00    +0.074 HD
ATOM     52  H   UNL     1     146.698 162.539 187.734  0.00  0.00    +0.038 HD
ATOM     53  H   UNL     1     148.094 164.534 185.826  0.00  0.00    +0.057 HD
ATOM     54  H   UNL     1     148.416 163.865 188.804  0.00  0.00    +0.059 HD
ATOM     55  H   UNL     1     150.356 165.210 186.954  0.00  0.00    +0.064 HD
ATOM     56  H   UNL     1     150.151 167.428 188.237  0.00  0.00    +0.032 HD
ATOM     57  H   UNL     1     148.653 166.854 188.932  0.00  0.00    +0.032 HD
ATOM     58  H   UNL     1     147.684 166.683 186.575  0.00  0.00    +0.060 HD
ENDROOT
BRANCH   1  59
ATOM     59  C   UNL     1     147.310 169.202 185.683  0.00  0.00    -0.057 C 
ATOM     60  H   UNL     1     148.021 169.498 184.904  0.00  0.00    +0.024 HD
ATOM     61  H   UNL     1     146.701 168.390 185.287  0.00  0.00    +0.024 HD
ATOM     62  H   UNL     1     146.644 170.051 185.871  0.00  0.00    +0.024 HD
ENDBRANCH   1  59
BRANCH  26  63
ATOM     63  C   UNL     1     147.025 162.001 185.715  0.00  0.00    -0.056 C 
ATOM     64  H   UNL     1     148.104 161.922 185.534  0.00  0.00    +0.024 HD
ATOM     65  H   UNL     1     146.677 161.019 186.049  0.00  0.00    +0.024 HD
ATOM     66  H   UNL     1     146.547 162.226 184.756  0.00  0.00    +0.024 HD
ENDBRANCH  26  63
BRANCH  18  67
ATOM     67  C   UNL     1     142.593 168.753 180.874  0.00  0.00    -0.043 C 
ATOM     68  H   UNL     1     142.817 169.804 180.655  0.00  0.00    +0.027 HD
ATOM     69  H   UNL     1     142.840 168.141 180.001  0.00  0.00    +0.027 HD
ATOM     70  H   UNL     1     141.510 168.689 181.023  0.00  0.00    +0.027 HD
ENDBRANCH  18  67
BRANCH   7  71
ATOM     71  C   UNL     1     144.045 170.461 187.378  0.00  0.00    -0.057 C 
ATOM     72  H   UNL     1     143.598 170.630 186.395  0.00  0.00    +0.023 HD
ATOM     73  H   UNL     1     144.706 169.594 187.278  0.00  0.00    +0.023 HD
ATOM     74  H   UNL     1     143.222 170.193 188.046  0.00  0.00    +0.023 HD
ENDBRANCH   7  71
BRANCH  31  75
ATOM     75  O   UNL     1     149.429 167.250 185.679  0.00  0.00    -0.391 OA
ATOM     76  H   UNL     1     149.186 167.965 185.065  0.00  0.00    +0.210 HD
ENDBRANCH  31  75
BRANCH  25  77
ATOM     77  C   UNL     1     144.842 164.643 187.724  0.00  0.00    +0.020 C 
ATOM     78  H   UNL     1     145.533 164.512 188.562  0.00  0.00    +0.036 HD
BRANCH  77  79
ATOM     79  C   UNL     1     144.986 166.138 187.361  0.00  0.00    -0.057 C 
ATOM     80  H   UNL     1     144.401 166.393 186.471  0.00  0.00    +0.023 HD
ATOM     81  H   UNL     1     146.032 166.396 187.168  0.00  0.00    +0.023 HD
ATOM     82  H   UNL     1     144.658 166.779 188.185  0.00  0.00    +0.023 HD
ENDBRANCH  77  79
BRANCH  77  83
ATOM     83  C   UNL     1     143.368 164.391 188.204  0.00  0.00    +0.067 C 
ATOM     84  H   UNL     1     142.843 163.791 187.446  0.00  0.00    +0.060 HD
BRANCH  83  85
ATOM     85  C   UNL     1     142.526 165.690 188.366  0.00  0.00    -0.017 C 
ATOM     86  H   UNL     1     143.072 166.506 187.887  0.00  0.00    +0.032 HD
BRANCH  85  87
ATOM     87  C   UNL     1     141.170 165.587 187.661  0.00  0.00    -0.060 C 
ATOM     88  H   UNL     1     141.211 166.038 186.664  0.00  0.00    +0.023 HD
ATOM     89  H   UNL     1     140.871 164.544 187.518  0.00  0.00    +0.023 HD
ATOM     90  H   UNL     1     140.378 166.079 188.234  0.00  0.00    +0.023 HD
ENDBRANCH  85  87
BRANCH  85  91
ATOM     91  C   UNL     1     142.360 166.157 189.840  0.00  0.00    -0.041 C 
ATOM     92  H   UNL     1     142.776 165.392 190.507  0.00  0.00    +0.027 HD
ATOM     93  H   UNL     1     141.283 166.177 190.061  0.00  0.00    +0.027 HD
BRANCH  91  94
ATOM     94  C   UNL     1     142.923 167.530 190.213  0.00  0.00    +0.007 C 
ATOM     95  H   UNL     1     142.219 168.304 189.882  0.00  0.00    +0.034 HD
ATOM     96  H   UNL     1     143.862 167.713 189.685  0.00  0.00    +0.034 HD
BRANCH  94  97
ATOM     97  C   UNL     1     143.133 167.761 191.700  0.00  0.00    +0.139 C 
ATOM     98  O   UNL     1     143.197 168.894 192.177  0.00  0.00    -0.297 OA
BRANCH  97  99
ATOM     99  C   UNL     1     143.302 166.517 192.562  0.00  0.00    +0.041 C 
ATOM    100  H   UNL     1     142.935 165.666 191.975  0.00  0.00    +0.040 HD
BRANCH  99 101
ATOM    101  C   UNL     1     142.402 166.614 193.791  0.00  0.00    -0.053 C 
ATOM    102  H   UNL     1     142.539 167.582 194.285  0.00  0.00    +0.024 HD
ATOM    103  H   UNL     1     142.635 165.845 194.534  0.00  0.00    +0.024 HD
ATOM    104  H   UNL     1     141.347 166.524 193.514  0.00  0.00    +0.024 HD
ENDBRANCH  99 101
BRANCH  99 105
ATOM    105  C   UNL     1     144.796 166.271 192.869  0.00  0.00    +0.071 C 
ATOM    106  H   UNL     1     145.319 167.237 192.923  0.00  0.00    +0.061 HD
BRANCH 105 107
ATOM    107  C   UNL     1     145.053 165.504 194.185  0.00  0.00    -0.006 C 
ATOM    108  H   UNL     1     144.552 164.528 194.161  0.00  0.00    +0.033 HD
ATOM    109  H   UNL     1     144.651 166.056 195.042  0.00  0.00    +0.033 HD
BRANCH 107 110
ATOM    110  C   UNL     1     146.528 165.242 194.385  0.00  0.00    -0.067 C 
ATOM    111  C   UNL     1     147.339 166.089 195.034  0.00  0.00    -0.005 C 
ATOM    112  H   UNL     1     146.881 164.312 193.949  0.00  0.00    +0.059 HD
ATOM    113  H   UNL     1     146.914 167.006 195.441  0.00  0.00    +0.078 HD
BRANCH 111 114
ATOM    114  N   UNL     1     148.701 165.944 195.256  0.00  0.00    -0.284 N 
ATOM    115  C   UNL     1     149.318 165.958 196.501  0.00  0.00    +0.206 C 
ATOM    116  O   UNL     1     150.516 165.806 196.711  0.00  0.00    -0.279 OA
ATOM    117  H   UNL     1     148.626 166.115 197.339  0.00  0.00    +0.126 HD
BRANCH 114 118
ATOM    118  C   UNL     1     149.544 165.744 194.082  0.00  0.00    +0.007 C 
ATOM    119  H   UNL     1     149.112 164.948 193.467  0.00  0.00    +0.043 HD
ATOM    120  H   UNL     1     150.565 165.458 194.351  0.00  0.00    +0.043 HD
ATOM    121  H   UNL     1     149.586 166.672 193.504  0.00  0.00    +0.043 HD
ENDBRANCH 114 118
ENDBRANCH 111 114
ENDBRANCH 107 110
ENDBRANCH 105 107
BRANCH 105 122
ATOM    122  O   UNL     1     145.362 165.482 191.801  0.00  0.00    -0.379 OA
BRANCH 122 123
ATOM    123  C   UNL     1     146.300 166.194 191.007  0.00  0.00    +0.037 C 
ATOM    124  H   UNL     1     146.439 165.710 190.040  0.00  0.00    +0.052 HD
ATOM    125  H   UNL     1     147.256 166.204 191.533  0.00  0.00    +0.052 HD
ATOM    126  H   UNL     1     145.976 167.229 190.867  0.00  0.00    +0.052 HD
ENDBRANCH 122 123
ENDBRANCH 105 122
ENDBRANCH  99 105
ENDBRANCH  97  99
ENDBRANCH  94  97
ENDBRANCH  91  94
ENDBRANCH  85  91
ENDBRANCH  83  85
BRANCH  83 127
ATOM    127  O   UNL     1     143.318 163.685 189.450  0.00  0.00    -0.379 OA
BRANCH 127 128
ATOM    128  C   UNL     1     142.678 162.414 189.373  0.00  0.00    +0.037 C 
ATOM    129  H   UNL     1     143.196 161.748 188.678  0.00  0.00    +0.052 HD
ATOM    130  H   UNL     1     141.657 162.575 189.008  0.00  0.00    +0.052 HD
ATOM    131  H   UNL     1     142.613 161.950 190.358  0.00  0.00    +0.052 HD
ENDBRANCH 127 128
ENDBRANCH  83 127
ENDBRANCH  77  83
ENDBRANCH  25  77
BRANCH   9 132
ATOM    132  O   UNL     1     146.437 172.662 185.605  0.00  0.00    -0.384 OA
ATOM    133  H   UNL     1     146.786 172.876 184.721  0.00  0.00    +0.210 HD
ENDBRANCH   9 132
BRANCH  29 134
ATOM    134  O   UNL     1     150.565 164.976 189.006  0.00  0.00    -0.376 OA
BRANCH 134 135
ATOM    135  C   UNL     1     150.613 165.994 189.995  0.00  0.00    +0.037 C 
ATOM    136  H   UNL     1     151.581 165.982 190.506  0.00  0.00    +0.052 HD
ATOM    137  H   UNL     1     149.828 165.794 190.732  0.00  0.00    +0.052 HD
ATOM    138  H   UNL     1     150.432 166.980 189.557  0.00  0.00    +0.052 HD
ENDBRANCH 134 135
ENDBRANCH  29 134
BRANCH   6 139
ATOM    139  O   UNL     1     143.496 171.160 189.936  0.00  0.00    -0.379 OA
BRANCH 139 140
ATOM    140  C   UNL     1     142.459 171.961 190.492  0.00  0.00    +0.037 C 
ATOM    141  H   UNL     1     141.969 172.552 189.710  0.00  0.00    +0.052 HD
ATOM    142  H   UNL     1     142.914 172.648 191.214  0.00  0.00    +0.052 HD
ATOM    143  H   UNL     1     141.727 171.343 191.018  0.00  0.00    +0.052 HD
ENDBRANCH 139 140
ENDBRANCH   6 139
BRANCH  16 144
ATOM    144  O   UNL     1     143.064 171.417 181.947  0.00  0.00    -0.379 OA
BRANCH 144 145
ATOM    145  C   UNL     1     143.417 172.422 181.008  0.00  0.00    +0.037 C 
ATOM    146  H   UNL     1     143.074 173.403 181.342  0.00  0.00    +0.052 HD
ATOM    147  H   UNL     1     144.495 172.435 180.828  0.00  0.00    +0.052 HD
ATOM    148  H   UNL     1     142.911 172.193 180.066  0.00  0.00    +0.052 HD
ENDBRANCH 144 145
ENDBRANCH  16 144
BRANCH   4 149
ATOM    149  O   UNL     1     147.038 169.882 191.444  0.00  0.00    -0.376 OA
BRANCH 149 150
ATOM    150  C   UNL     1     148.295 170.549 191.433  0.00  0.00    +0.037 C 
ATOM    151  H   UNL     1     148.971 169.999 190.771  0.00  0.00    +0.052 HD
ATOM    152  H   UNL     1     148.185 171.567 191.043  0.00  0.00    +0.052 HD
ATOM    153  H   UNL     1     148.734 170.570 192.435  0.00  0.00    +0.052 HD
ENDBRANCH 149 150
ENDBRANCH   4 149
TORSDOF 33
ENDMDL
MODEL 9
REMARK VINA RESULT:      -4.3      2.177      5.895
REMARK  Name = Sphinxolide B_conf3
REMARK  33 active torsions:
REMARK  status: ('A' for Active; 'I' for Inactive)
REMARK    1  A    between atoms: C_1  and  C_2
REMARK    2  A    between atoms: C_5  and  O_67
REMARK    3  A    between atoms: C_7  and  O_65
REMARK    4  A    between atoms: C_8  and  C_64
REMARK    5  A    between atoms: C_10  and  O_63
REMARK    6  A    between atoms: C_17  and  O_61
REMARK    7  A    between atoms: C_19  and  C_60
REMARK    8  A    between atoms: C_26  and  C_37
REMARK    9  A    between atoms: C_27  and  C_36
REMARK   10  A    between atoms: C_30  and  O_34
REMARK   11  A    between atoms: C_32  and  O_33
REMARK   12  A    between atoms: O_34  and  C_35
REMARK   13  A    between atoms: C_37  and  C_38
REMARK   14  A    between atoms: C_37  and  C_39
REMARK   15  A    between atoms: C_39  and  C_40
REMARK   16  A    between atoms: C_39  and  O_58
REMARK   17  A    between atoms: C_40  and  C_41
REMARK   18  A    between atoms: C_40  and  C_42
REMARK   19  A    between atoms: C_42  and  C_43
REMARK   20  A    between atoms: C_43  and  C_44
REMARK   21  A    between atoms: C_44  and  C_46
REMARK   22  A    between atoms: C_46  and  C_47
REMARK   23  A    between atoms: C_46  and  C_48
REMARK   24  A    between atoms: C_48  and  C_49
REMARK   25  A    between atoms: C_48  and  O_56
REMARK   26  A    between atoms: C_49  and  C_50
REMARK   27  A    between atoms: C_51  and  N_52
REMARK   28  A    between atoms: N_52  and  C_53
REMARK   29  A    between atoms: O_56  and  C_57
REMARK   30  A    between atoms: O_58  and  C_59
REMARK   31  A    between atoms: O_61  and  C_62
REMARK   32  A    between atoms: O_65  and  C_66
REMARK   33  A    between atoms: O_67  and  C_68
REMARK                            x       y       z     vdW  Elec       q    Type
REMARK                         _______ _______ _______ _____ _____    ______ ____
ROOT
ATOM      1  C   UNL     1     147.908 168.441 187.926  0.00  0.00    +0.000 C 
ATOM      2  C   UNL     1     148.027 167.147 187.154  0.00  0.00    -0.080 C 
ATOM      3  C   UNL     1     148.663 167.047 185.974  0.00  0.00    -0.059 C 
ATOM      4  C   UNL     1     148.885 165.765 185.210  0.00  0.00    +0.079 C 
ATOM      5  C   UNL     1     150.384 165.518 184.938  0.00  0.00    +0.004 C 
ATOM      6  C   UNL     1     151.181 164.761 186.028  0.00  0.00    +0.067 C 
ATOM      7  C   UNL     1     151.237 165.512 187.395  0.00  0.00    +0.022 C 
ATOM      8  C   UNL     1     152.715 165.720 187.868  0.00  0.00    +0.138 C 
ATOM      9  C   UNL     1     152.947 166.812 188.935  0.00  0.00    +0.114 C 
ATOM     10  C   UNL     1     152.566 166.309 190.302  0.00  0.00    -0.029 C 
ATOM     11  C   UNL     1     152.801 165.005 190.561  0.00  0.00    +0.024 C 
ATOM     12  C   UNL     1     153.352 164.076 189.552  0.00  0.00    +0.332 C 
ATOM     13  O   UNL     1     153.784 162.979 189.880  0.00  0.00    -0.246 OA
ATOM     14  O   UNL     1     153.348 164.485 188.258  0.00  0.00    -0.455 OA
ATOM     15  C   UNL     1     152.018 167.325 191.289  0.00  0.00    -0.002 C 
ATOM     16  C   UNL     1     151.549 166.900 192.704  0.00  0.00    +0.066 C 
ATOM     17  C   UNL     1     150.248 166.042 192.688  0.00  0.00    -0.005 C 
ATOM     18  C   UNL     1     149.506 166.003 194.024  0.00  0.00    -0.070 C 
ATOM     19  C   UNL     1     148.169 166.061 194.204  0.00  0.00    -0.062 C 
ATOM     20  C   UNL     1     147.101 166.087 193.222  0.00  0.00    -0.055 C 
ATOM     21  C   UNL     1     145.822 166.029 193.632  0.00  0.00    +0.023 C 
ATOM     22  C   UNL     1     144.616 165.832 192.808  0.00  0.00    +0.332 C 
ATOM     23  O   UNL     1     143.571 165.461 193.326  0.00  0.00    -0.246 OA
ATOM     24  O   UNL     1     144.822 166.035 191.485  0.00  0.00    -0.457 OA
ATOM     25  C   UNL     1     143.802 165.484 190.600  0.00  0.00    +0.114 C 
ATOM     26  C   UNL     1     142.813 166.586 190.108  0.00  0.00    +0.012 C 
ATOM     27  C   UNL     1     143.493 167.762 189.442  0.00  0.00    -0.079 C 
ATOM     28  C   UNL     1     143.391 168.069 188.138  0.00  0.00    -0.059 C 
ATOM     29  C   UNL     1     144.068 169.236 187.468  0.00  0.00    +0.079 C 
ATOM     30  C   UNL     1     145.523 168.918 187.079  0.00  0.00    +0.004 C 
ATOM     31  C   UNL     1     146.448 168.787 188.292  0.00  0.00    +0.064 C 
ATOM     32  H   UNL     1     148.328 169.269 187.336  0.00  0.00    +0.037 HD
ATOM     33  H   UNL     1     147.601 166.259 187.615  0.00  0.00    +0.057 HD
ATOM     34  H   UNL     1     149.075 167.944 185.513  0.00  0.00    +0.059 HD
ATOM     35  H   UNL     1     148.443 164.897 185.715  0.00  0.00    +0.064 HD
ATOM     36  H   UNL     1     150.890 166.467 184.712  0.00  0.00    +0.032 HD
ATOM     37  H   UNL     1     150.457 164.923 184.017  0.00  0.00    +0.032 HD
ATOM     38  H   UNL     1     152.197 164.658 185.622  0.00  0.00    +0.060 HD
ATOM     39  H   UNL     1     150.865 166.526 187.221  0.00  0.00    +0.036 HD
ATOM     40  H   UNL     1     153.270 166.067 186.984  0.00  0.00    +0.077 HD
ATOM     41  H   UNL     1     154.017 167.059 188.978  0.00  0.00    +0.068 HD
ATOM     42  H   UNL     1     152.632 164.551 191.528  0.00  0.00    +0.069 HD
ATOM     43  H   UNL     1     152.794 168.092 191.411  0.00  0.00    +0.034 HD
ATOM     44  H   UNL     1     151.166 167.832 190.823  0.00  0.00    +0.034 HD
ATOM     45  H   UNL     1     151.327 167.821 193.262  0.00  0.00    +0.060 HD
ATOM     46  H   UNL     1     149.581 166.434 191.913  0.00  0.00    +0.034 HD
ATOM     47  H   UNL     1     150.491 165.007 192.425  0.00  0.00    +0.034 HD
ATOM     48  H   UNL     1     147.817 166.025 195.236  0.00  0.00    +0.062 HD
ATOM     49  H   UNL     1     147.350 166.060 192.168  0.00  0.00    +0.062 HD
ATOM     50  H   UNL     1     145.586 166.009 194.692  0.00  0.00    +0.069 HD
ATOM     51  H   UNL     1     143.212 164.757 191.167  0.00  0.00    +0.074 HD
ATOM     52  H   UNL     1     142.115 166.125 189.399  0.00  0.00    +0.038 HD
ATOM     53  H   UNL     1     144.101 168.392 190.092  0.00  0.00    +0.057 HD
ATOM     54  H   UNL     1     142.774 167.454 187.489  0.00  0.00    +0.059 HD
ATOM     55  H   UNL     1     144.009 170.113 188.122  0.00  0.00    +0.064 HD
ATOM     56  H   UNL     1     145.901 169.718 186.429  0.00  0.00    +0.032 HD
ATOM     57  H   UNL     1     145.542 168.007 186.471  0.00  0.00    +0.032 HD
ATOM     58  H   UNL     1     146.084 168.007 188.967  0.00  0.00    +0.060 HD
ENDROOT
BRANCH   1  59
ATOM     59  C   UNL     1     148.752 168.333 189.203  0.00  0.00    -0.057 C 
ATOM     60  H   UNL     1     148.229 168.755 190.067  0.00  0.00    +0.024 HD
ATOM     61  H   UNL     1     148.978 167.291 189.427  0.00  0.00    +0.024 HD
ATOM     62  H   UNL     1     149.706 168.860 189.096  0.00  0.00    +0.024 HD
ENDBRANCH   1  59
BRANCH  26  63
ATOM     63  C   UNL     1     141.948 167.131 191.253  0.00  0.00    -0.056 C 
ATOM     64  H   UNL     1     142.572 167.587 192.032  0.00  0.00    +0.024 HD
ATOM     65  H   UNL     1     141.266 167.904 190.887  0.00  0.00    +0.024 HD
ATOM     66  H   UNL     1     141.352 166.345 191.729  0.00  0.00    +0.024 HD
ENDBRANCH  26  63
BRANCH  18  67
ATOM     67  C   UNL     1     150.370 165.816 195.255  0.00  0.00    -0.043 C 
ATOM     68  H   UNL     1     149.770 165.422 196.084  0.00  0.00    +0.027 HD
ATOM     69  H   UNL     1     151.195 165.128 195.047  0.00  0.00    +0.027 HD
ATOM     70  H   UNL     1     150.809 166.756 195.606  0.00  0.00    +0.027 HD
ENDBRANCH  18  67
BRANCH   7  71
ATOM     71  C   UNL     1     150.324 164.859 188.442  0.00  0.00    -0.057 C 
ATOM     72  H   UNL     1     149.747 164.035 188.014  0.00  0.00    +0.023 HD
ATOM     73  H   UNL     1     150.892 164.444 189.281  0.00  0.00    +0.023 HD
ATOM     74  H   UNL     1     149.594 165.571 188.837  0.00  0.00    +0.023 HD
ENDBRANCH   7  71
BRANCH  31  75
ATOM     75  O   UNL     1     146.423 170.020 189.023  0.00  0.00    -0.391 OA
ATOM     76  H   UNL     1     145.674 169.985 189.644  0.00  0.00    +0.210 HD
ENDBRANCH  31  75
BRANCH  25  77
ATOM     77  C   UNL     1     144.533 164.704 189.461  0.00  0.00    +0.020 C 
ATOM     78  H   UNL     1     144.804 165.422 188.681  0.00  0.00    +0.036 HD
BRANCH  77  79
ATOM     79  C   UNL     1     145.895 164.162 189.949  0.00  0.00    -0.057 C 
ATOM     80  H   UNL     1     146.727 164.618 189.404  0.00  0.00    +0.023 HD
ATOM     81  H   UNL     1     145.955 163.077 189.820  0.00  0.00    +0.023 HD
ATOM     82  H   UNL     1     146.036 164.353 191.018  0.00  0.00    +0.023 HD
ENDBRANCH  77  79
BRANCH  77  83
ATOM     83  C   UNL     1     143.724 163.513 188.833  0.00  0.00    +0.067 C 
ATOM     84  H   UNL     1     144.399 162.656 188.695  0.00  0.00    +0.060 HD
BRANCH  83  85
ATOM     85  C   UNL     1     143.143 163.819 187.422  0.00  0.00    -0.017 C 
ATOM     86  H   UNL     1     143.177 162.896 186.837  0.00  0.00    +0.032 HD
BRANCH  85  87
ATOM     87  C   UNL     1     141.675 164.251 187.486  0.00  0.00    -0.060 C 
ATOM     88  H   UNL     1     141.412 164.876 186.628  0.00  0.00    +0.023 HD
ATOM     89  H   UNL     1     141.003 163.388 187.459  0.00  0.00    +0.023 HD
ATOM     90  H   UNL     1     141.457 164.806 188.404  0.00  0.00    +0.023 HD
ENDBRANCH  85  87
BRANCH  85  91
ATOM     91  C   UNL     1     143.990 164.826 186.594  0.00  0.00    -0.041 C 
ATOM     92  H   UNL     1     144.288 165.661 187.240  0.00  0.00    +0.027 HD
ATOM     93  H   UNL     1     143.328 165.270 185.837  0.00  0.00    +0.027 HD
BRANCH  91  94
ATOM     94  C   UNL     1     145.216 164.279 185.857  0.00  0.00    +0.007 C 
ATOM     95  H   UNL     1     145.676 163.494 186.470  0.00  0.00    +0.034 HD
ATOM     96  H   UNL     1     145.967 165.063 185.734  0.00  0.00    +0.034 HD
BRANCH  94  97
ATOM     97  C   UNL     1     144.929 163.645 184.507  0.00  0.00    +0.139 C 
ATOM     98  O   UNL     1     144.746 164.325 183.497  0.00  0.00    -0.297 OA
BRANCH  97  99
ATOM     99  C   UNL     1     144.839 162.124 184.477  0.00  0.00    +0.041 C 
ATOM    100  H   UNL     1     145.306 161.793 183.541  0.00  0.00    +0.040 HD
BRANCH  99 101
ATOM    101  C   UNL     1     143.377 161.695 184.406  0.00  0.00    -0.053 C 
ATOM    102  H   UNL     1     142.898 161.816 185.383  0.00  0.00    +0.024 HD
ATOM    103  H   UNL     1     143.271 160.641 184.131  0.00  0.00    +0.024 HD
ATOM    104  H   UNL     1     142.823 162.302 183.682  0.00  0.00    +0.024 HD
ENDBRANCH  99 101
BRANCH  99 105
ATOM    105  C   UNL     1     145.639 161.513 185.648  0.00  0.00    +0.071 C 
ATOM    106  H   UNL     1     146.074 162.323 186.252  0.00  0.00    +0.061 HD
BRANCH 105 107
ATOM    107  C   UNL     1     144.804 160.605 186.578  0.00  0.00    -0.006 C 
ATOM    108  H   UNL     1     144.692 159.608 186.136  0.00  0.00    +0.033 HD
ATOM    109  H   UNL     1     143.799 161.015 186.720  0.00  0.00    +0.033 HD
BRANCH 107 110
ATOM    110  C   UNL     1     145.483 160.425 187.917  0.00  0.00    -0.067 C 
ATOM    111  C   UNL     1     145.857 159.229 188.392  0.00  0.00    -0.005 C 
ATOM    112  H   UNL     1     145.637 161.347 188.469  0.00  0.00    +0.059 HD
ATOM    113  H   UNL     1     145.665 158.345 187.782  0.00  0.00    +0.078 HD
BRANCH 111 114
ATOM    114  N   UNL     1     146.470 158.962 189.607  0.00  0.00    -0.284 N 
ATOM    115  C   UNL     1     147.786 159.274 189.928  0.00  0.00    +0.206 C 
ATOM    116  O   UNL     1     148.332 159.066 191.005  0.00  0.00    -0.279 OA
ATOM    117  H   UNL     1     148.342 159.755 189.111  0.00  0.00    +0.126 HD
BRANCH 114 118
ATOM    118  C   UNL     1     145.657 158.316 190.631  0.00  0.00    +0.007 C 
ATOM    119  H   UNL     1     146.318 157.899 191.398  0.00  0.00    +0.043 HD
ATOM    120  H   UNL     1     145.045 157.506 190.222  0.00  0.00    +0.043 HD
ATOM    121  H   UNL     1     144.990 159.056 191.084  0.00  0.00    +0.043 HD
ENDBRANCH 114 118
ENDBRANCH 111 114
ENDBRANCH 107 110
ENDBRANCH 105 107
BRANCH 105 122
ATOM    122  O   UNL     1     146.702 160.700 185.106  0.00  0.00    -0.379 OA
BRANCH 122 123
ATOM    123  C   UNL     1     147.943 161.385 185.003  0.00  0.00    +0.037 C 
ATOM    124  H   UNL     1     147.906 162.140 184.217  0.00  0.00    +0.052 HD
ATOM    125  H   UNL     1     148.716 160.657 184.752  0.00  0.00    +0.052 HD
ATOM    126  H   UNL     1     148.205 161.848 185.957  0.00  0.00    +0.052 HD
ENDBRANCH 122 123
ENDBRANCH 105 122
ENDBRANCH  99 105
ENDBRANCH  97  99
ENDBRANCH  94  97
ENDBRANCH  91  94
ENDBRANCH  85  91
ENDBRANCH  83  85
BRANCH  83 127
ATOM    127  O   UNL     1     142.635 163.099 189.668  0.00  0.00    -0.379 OA
BRANCH 127 128
ATOM    128  C   UNL     1     142.515 161.686 189.808  0.00  0.00    +0.037 C 
ATOM    129  H   UNL     1     143.364 161.265 190.353  0.00  0.00    +0.052 HD
ATOM    130  H   UNL     1     142.495 161.250 188.803  0.00  0.00    +0.052 HD
ATOM    131  H   UNL     1     141.582 161.421 190.307  0.00  0.00    +0.052 HD
ENDBRANCH 127 128
ENDBRANCH  83 127
ENDBRANCH  77  83
ENDBRANCH  25  77
BRANCH   9 132
ATOM    132  O   UNL     1     152.258 168.012 188.618  0.00  0.00    -0.384 OA
ATOM    133  H   UNL     1     151.681 168.226 189.373  0.00  0.00    +0.210 HD
ENDBRANCH   9 132
BRANCH  29 134
ATOM    134  O   UNL     1     143.314 169.483 186.271  0.00  0.00    -0.376 OA
BRANCH 134 135
ATOM    135  C   UNL     1     143.330 168.389 185.366  0.00  0.00    +0.037 C 
ATOM    136  H   UNL     1     142.414 168.378 184.766  0.00  0.00    +0.052 HD
ATOM    137  H   UNL     1     143.377 167.463 185.947  0.00  0.00    +0.052 HD
ATOM    138  H   UNL     1     144.206 168.431 184.711  0.00  0.00    +0.052 HD
ENDBRANCH 134 135
ENDBRANCH  29 134
BRANCH   6 139
ATOM    139  O   UNL     1     150.581 163.463 186.137  0.00  0.00    -0.379 OA
BRANCH 139 140
ATOM    140  C   UNL     1     151.494 162.399 185.891  0.00  0.00    +0.037 C 
ATOM    141  H   UNL     1     152.415 162.780 185.434  0.00  0.00    +0.052 HD
ATOM    142  H   UNL     1     151.021 161.703 185.191  0.00  0.00    +0.052 HD
ATOM    143  H   UNL     1     151.722 161.859 186.814  0.00  0.00    +0.052 HD
ENDBRANCH 139 140
ENDBRANCH   6 139
BRANCH  16 144
ATOM    144  O   UNL     1     152.580 166.177 193.397  0.00  0.00    -0.379 OA
BRANCH 144 145
ATOM    145  C   UNL     1     153.749 166.941 193.652  0.00  0.00    +0.037 C 
ATOM    146  H   UNL     1     153.735 167.875 193.086  0.00  0.00    +0.052 HD
ATOM    147  H   UNL     1     153.865 167.143 194.720  0.00  0.00    +0.052 HD
ATOM    148  H   UNL     1     154.611 166.359 193.314  0.00  0.00    +0.052 HD
ENDBRANCH 144 145
ENDBRANCH  16 144
BRANCH   4 149
ATOM    149  O   UNL     1     148.264 165.955 183.928  0.00  0.00    -0.376 OA
BRANCH 149 150
ATOM    150  C   UNL     1     148.294 164.778 183.129  0.00  0.00    +0.037 C 
ATOM    151  H   UNL     1     148.943 164.963 182.267  0.00  0.00    +0.052 HD
ATOM    152  H   UNL     1     148.709 163.939 183.698  0.00  0.00    +0.052 HD
ATOM    153  H   UNL     1     147.294 164.530 182.761  0.00  0.00    +0.052 HD
ENDBRANCH 149 150
ENDBRANCH   4 149
TORSDOF 33
ENDMDL
MODEL 10
REMARK VINA RESULT:      -4.3      1.663      2.172
REMARK  Name = Sphinxolide B_conf3
REMARK  33 active torsions:
REMARK  status: ('A' for Active; 'I' for Inactive)
REMARK    1  A    between atoms: C_1  and  C_2
REMARK    2  A    between atoms: C_5  and  O_67
REMARK    3  A    between atoms: C_7  and  O_65
REMARK    4  A    between atoms: C_8  and  C_64
REMARK    5  A    between atoms: C_10  and  O_63
REMARK    6  A    between atoms: C_17  and  O_61
REMARK    7  A    between atoms: C_19  and  C_60
REMARK    8  A    between atoms: C_26  and  C_37
REMARK    9  A    between atoms: C_27  and  C_36
REMARK   10  A    between atoms: C_30  and  O_34
REMARK   11  A    between atoms: C_32  and  O_33
REMARK   12  A    between atoms: O_34  and  C_35
REMARK   13  A    between atoms: C_37  and  C_38
REMARK   14  A    between atoms: C_37  and  C_39
REMARK   15  A    between atoms: C_39  and  C_40
REMARK   16  A    between atoms: C_39  and  O_58
REMARK   17  A    between atoms: C_40  and  C_41
REMARK   18  A    between atoms: C_40  and  C_42
REMARK   19  A    between atoms: C_42  and  C_43
REMARK   20  A    between atoms: C_43  and  C_44
REMARK   21  A    between atoms: C_44  and  C_46
REMARK   22  A    between atoms: C_46  and  C_47
REMARK   23  A    between atoms: C_46  and  C_48
REMARK   24  A    between atoms: C_48  and  C_49
REMARK   25  A    between atoms: C_48  and  O_56
REMARK   26  A    between atoms: C_49  and  C_50
REMARK   27  A    between atoms: C_51  and  N_52
REMARK   28  A    between atoms: N_52  and  C_53
REMARK   29  A    between atoms: O_56  and  C_57
REMARK   30  A    between atoms: O_58  and  C_59
REMARK   31  A    between atoms: O_61  and  C_62
REMARK   32  A    between atoms: O_65  and  C_66
REMARK   33  A    between atoms: O_67  and  C_68
REMARK                            x       y       z     vdW  Elec       q    Type
REMARK                         _______ _______ _______ _____ _____    ______ ____
ROOT
ATOM      1  C   UNL     1     147.980 166.880 185.570  0.00  0.00    +0.000 C 
ATOM      2  C   UNL     1     146.974 165.810 185.927  0.00  0.00    -0.080 C 
ATOM      3  C   UNL     1     146.473 164.940 185.033  0.00  0.00    -0.059 C 
ATOM      4  C   UNL     1     145.537 163.802 185.355  0.00  0.00    +0.079 C 
ATOM      5  C   UNL     1     146.115 162.444 184.900  0.00  0.00    +0.004 C 
ATOM      6  C   UNL     1     147.030 161.699 185.901  0.00  0.00    +0.067 C 
ATOM      7  C   UNL     1     148.333 162.482 186.259  0.00  0.00    +0.022 C 
ATOM      8  C   UNL     1     149.608 161.618 185.982  0.00  0.00    +0.138 C 
ATOM      9  C   UNL     1     150.942 162.385 185.855  0.00  0.00    +0.114 C 
ATOM     10  C   UNL     1     151.473 162.758 187.214  0.00  0.00    -0.029 C 
ATOM     11  C   UNL     1     151.253 161.883 188.218  0.00  0.00    +0.024 C 
ATOM     12  C   UNL     1     150.482 160.635 188.037  0.00  0.00    +0.332 C 
ATOM     13  O   UNL     1     150.510 159.753 188.884  0.00  0.00    -0.246 OA
ATOM     14  O   UNL     1     149.740 160.518 186.906  0.00  0.00    -0.455 OA
ATOM     15  C   UNL     1     152.266 164.049 187.319  0.00  0.00    -0.002 C 
ATOM     16  C   UNL     1     152.812 164.549 188.681  0.00  0.00    +0.066 C 
ATOM     17  C   UNL     1     151.692 165.023 189.655  0.00  0.00    -0.005 C 
ATOM     18  C   UNL     1     152.182 165.936 190.780  0.00  0.00    -0.070 C 
ATOM     19  C   UNL     1     151.556 167.032 191.256  0.00  0.00    -0.062 C 
ATOM     20  C   UNL     1     150.258 167.582 190.915  0.00  0.00    -0.055 C 
ATOM     21  C   UNL     1     149.779 168.631 191.606  0.00  0.00    +0.023 C 
ATOM     22  C   UNL     1     148.419 169.198 191.563  0.00  0.00    +0.332 C 
ATOM     23  O   UNL     1     148.022 169.914 192.472  0.00  0.00    -0.246 OA
ATOM     24  O   UNL     1     147.693 168.791 190.494  0.00  0.00    -0.457 OA
ATOM     25  C   UNL     1     146.253 168.992 190.601  0.00  0.00    +0.114 C 
ATOM     26  C   UNL     1     145.788 170.254 189.810  0.00  0.00    +0.012 C 
ATOM     27  C   UNL     1     146.200 170.246 188.354  0.00  0.00    -0.079 C 
ATOM     28  C   UNL     1     145.352 170.140 187.318  0.00  0.00    -0.059 C 
ATOM     29  C   UNL     1     145.757 170.129 185.867  0.00  0.00    +0.079 C 
ATOM     30  C   UNL     1     146.198 168.731 185.397  0.00  0.00    +0.004 C 
ATOM     31  C   UNL     1     147.533 168.292 186.006  0.00  0.00    +0.064 C 
ATOM     32  H   UNL     1     148.152 166.886 184.483  0.00  0.00    +0.037 HD
ATOM     33  H   UNL     1     146.683 165.738 186.972  0.00  0.00    +0.057 HD
ATOM     34  H   UNL     1     146.759 165.028 183.985  0.00  0.00    +0.059 HD
ATOM     35  H   UNL     1     145.277 163.765 186.420  0.00  0.00    +0.064 HD
ATOM     36  H   UNL     1     146.641 162.559 183.942  0.00  0.00    +0.032 HD
ATOM     37  H   UNL     1     145.265 161.781 184.687  0.00  0.00    +0.032 HD
ATOM     38  H   UNL     1     147.293 160.755 185.403  0.00  0.00    +0.060 HD
ATOM     39  H   UNL     1     148.413 163.313 185.553  0.00  0.00    +0.036 HD
ATOM     40  H   UNL     1     149.453 161.155 184.996  0.00  0.00    +0.077 HD
ATOM     41  H   UNL     1     151.696 161.732 185.392  0.00  0.00    +0.068 HD
ATOM     42  H   UNL     1     151.646 162.013 189.217  0.00  0.00    +0.069 HD
ATOM     43  H   UNL     1     153.120 163.948 186.635  0.00  0.00    +0.034 HD
ATOM     44  H   UNL     1     151.654 164.863 186.917  0.00  0.00    +0.034 HD
ATOM     45  H   UNL     1     153.455 165.417 188.474  0.00  0.00    +0.060 HD
ATOM     46  H   UNL     1     150.921 165.543 189.075  0.00  0.00    +0.034 HD
ATOM     47  H   UNL     1     151.221 164.154 190.128  0.00  0.00    +0.034 HD
ATOM     48  H   UNL     1     152.061 167.566 192.064  0.00  0.00    +0.062 HD
ATOM     49  H   UNL     1     149.652 167.083 190.168  0.00  0.00    +0.062 HD
ATOM     50  H   UNL     1     150.378 169.094 192.385  0.00  0.00    +0.069 HD
ATOM     51  H   UNL     1     146.008 169.168 191.653  0.00  0.00    +0.074 HD
ATOM     52  H   UNL     1     144.695 170.312 189.875  0.00  0.00    +0.038 HD
ATOM     53  H   UNL     1     147.270 170.340 188.161  0.00  0.00    +0.057 HD
ATOM     54  H   UNL     1     144.285 170.063 187.503  0.00  0.00    +0.059 HD
ATOM     55  H   UNL     1     146.544 170.874 185.705  0.00  0.00    +0.064 HD
ATOM     56  H   UNL     1     146.291 168.735 184.303  0.00  0.00    +0.032 HD
ATOM     57  H   UNL     1     145.407 168.009 185.625  0.00  0.00    +0.032 HD
ATOM     58  H   UNL     1     147.472 168.296 187.098  0.00  0.00    +0.060 HD
ENDROOT
BRANCH   1  59
ATOM     59  C   UNL     1     149.322 166.534 186.229  0.00  0.00    -0.057 C 
ATOM     60  H   UNL     1     149.989 167.402 186.263  0.00  0.00    +0.024 HD
ATOM     61  H   UNL     1     149.170 166.191 187.252  0.00  0.00    +0.024 HD
ATOM     62  H   UNL     1     149.837 165.734 185.688  0.00  0.00    +0.024 HD
ENDBRANCH   1  59
BRANCH  26  63
ATOM     63  C   UNL     1     146.314 171.550 190.441  0.00  0.00    -0.056 C 
ATOM     64  H   UNL     1     146.945 172.102 189.732  0.00  0.00    +0.024 HD
ATOM     65  H   UNL     1     145.485 172.207 190.720  0.00  0.00    +0.024 HD
ATOM     66  H   UNL     1     146.916 171.358 191.335  0.00  0.00    +0.024 HD
ENDBRANCH  26  63
BRANCH  18  67
ATOM     67  C   UNL     1     153.471 165.515 191.457  0.00  0.00    -0.043 C 
ATOM     68  H   UNL     1     153.276 164.710 192.176  0.00  0.00    +0.027 HD
ATOM     69  H   UNL     1     154.202 165.172 190.718  0.00  0.00    +0.027 HD
ATOM     70  H   UNL     1     153.934 166.332 192.021  0.00  0.00    +0.027 HD
ENDBRANCH  18  67
BRANCH   7  71
ATOM     71  C   UNL     1     148.268 163.081 187.671  0.00  0.00    -0.057 C 
ATOM     72  H   UNL     1     147.237 163.157 188.028  0.00  0.00    +0.023 HD
ATOM     73  H   UNL     1     148.809 162.471 188.402  0.00  0.00    +0.023 HD
ATOM     74  H   UNL     1     148.676 164.094 187.696  0.00  0.00    +0.023 HD
ENDBRANCH   7  71
BRANCH  31  75
ATOM     75  O   UNL     1     148.539 169.243 185.637  0.00  0.00    -0.391 OA
ATOM     76  H   UNL     1     148.304 169.605 184.765  0.00  0.00    +0.210 HD
ENDBRANCH  31  75
BRANCH  25  77
ATOM     77  C   UNL     1     145.556 167.659 190.178  0.00  0.00    +0.020 C 
ATOM     78  H   UNL     1     144.790 167.901 189.434  0.00  0.00    +0.036 HD
BRANCH  77  79
ATOM     79  C   UNL     1     146.536 166.743 189.411  0.00  0.00    -0.057 C 
ATOM     80  H   UNL     1     146.296 165.685 189.560  0.00  0.00    +0.023 HD
ATOM     81  H   UNL     1     147.567 166.909 189.740  0.00  0.00    +0.023 HD
ATOM     82  H   UNL     1     146.518 166.955 188.337  0.00  0.00    +0.023 HD
ENDBRANCH  77  79
BRANCH  77  83
ATOM     83  C   UNL     1     144.918 166.830 191.350  0.00  0.00    +0.067 C 
ATOM     84  H   UNL     1     145.192 165.772 191.229  0.00  0.00    +0.060 HD
BRANCH  83  85
ATOM     85  C   UNL     1     143.362 166.860 191.370  0.00  0.00    -0.017 C 
ATOM     86  H   UNL     1     143.017 167.046 190.349  0.00  0.00    +0.032 HD
BRANCH  85  87
ATOM     87  C   UNL     1     142.767 165.516 191.803  0.00  0.00    -0.060 C 
ATOM     88  H   UNL     1     142.696 165.452 192.893  0.00  0.00    +0.023 HD
ATOM     89  H   UNL     1     141.752 165.385 191.417  0.00  0.00    +0.023 HD
ATOM     90  H   UNL     1     143.366 164.674 191.442  0.00  0.00    +0.023 HD
ENDBRANCH  85  87
BRANCH  85  91
ATOM     91  C   UNL     1     142.762 168.033 192.195  0.00  0.00    -0.041 C 
ATOM     92  H   UNL     1     143.330 168.143 193.127  0.00  0.00    +0.027 HD
ATOM     93  H   UNL     1     141.751 167.734 192.507  0.00  0.00    +0.027 HD
BRANCH  91  94
ATOM     94  C   UNL     1     142.637 169.392 191.502  0.00  0.00    +0.007 C 
ATOM     95  H   UNL     1     143.557 169.587 190.936  0.00  0.00    +0.034 HD
ATOM     96  H   UNL     1     142.548 170.190 192.242  0.00  0.00    +0.034 HD
BRANCH  94  97
ATOM     97  C   UNL     1     141.498 169.507 190.503  0.00  0.00    +0.139 C 
ATOM     98  O   UNL     1     140.359 169.120 190.771  0.00  0.00    -0.297 OA
BRANCH  97  99
ATOM     99  C   UNL     1     141.847 170.086 189.138  0.00  0.00    +0.041 C 
ATOM    100  H   UNL     1     142.920 170.314 189.151  0.00  0.00    +0.040 HD
BRANCH  99 101
ATOM    101  C   UNL     1     141.125 171.415 188.941  0.00  0.00    -0.053 C 
ATOM    102  H   UNL     1     140.480 171.368 188.057  0.00  0.00    +0.024 HD
ATOM    103  H   UNL     1     141.822 172.242 188.779  0.00  0.00    +0.024 HD
ATOM    104  H   UNL     1     140.495 171.653 189.804  0.00  0.00    +0.024 HD
ENDBRANCH  99 101
BRANCH  99 105
ATOM    105  C   UNL     1     141.598 169.040 188.029  0.00  0.00    +0.071 C 
ATOM    106  H   UNL     1     141.540 169.550 187.056  0.00  0.00    +0.061 HD
BRANCH 105 107
ATOM    107  C   UNL     1     142.682 167.943 187.940  0.00  0.00    -0.006 C 
ATOM    108  H   UNL     1     143.419 168.071 188.742  0.00  0.00    +0.033 HD
ATOM    109  H   UNL     1     143.221 168.005 186.988  0.00  0.00    +0.033 HD
BRANCH 107 110
ATOM    110  C   UNL     1     142.079 166.567 188.104  0.00  0.00    -0.067 C 
ATOM    111  C   UNL     1     142.802 165.440 188.043  0.00  0.00    -0.005 C 
ATOM    112  H   UNL     1     141.006 166.565 188.268  0.00  0.00    +0.059 HD
ATOM    113  H   UNL     1     143.875 165.521 187.870  0.00  0.00    +0.078 HD
BRANCH 111 114
ATOM    114  N   UNL     1     142.340 164.138 188.168  0.00  0.00    -0.284 N 
ATOM    115  C   UNL     1     141.040 163.718 187.912  0.00  0.00    +0.206 C 
ATOM    116  O   UNL     1     140.626 162.568 187.994  0.00  0.00    -0.279 OA
ATOM    117  H   UNL     1     140.364 164.528 187.604  0.00  0.00    +0.126 HD
BRANCH 114 118
ATOM    118  C   UNL     1     143.309 163.130 188.586  0.00  0.00    +0.007 C 
ATOM    119  H   UNL     1     143.849 163.501 189.463  0.00  0.00    +0.043 HD
ATOM    120  H   UNL     1     144.036 162.905 187.800  0.00  0.00    +0.043 HD
ATOM    121  H   UNL     1     142.782 162.206 188.843  0.00  0.00    +0.043 HD
ENDBRANCH 114 118
ENDBRANCH 111 114
ENDBRANCH 107 110
ENDBRANCH 105 107
BRANCH 105 122
ATOM    122  O   UNL     1     140.344 168.376 188.293  0.00  0.00    -0.379 OA
BRANCH 122 123
ATOM    123  C   UNL     1     139.319 168.714 187.370  0.00  0.00    +0.037 C 
ATOM    124  H   UNL     1     139.012 169.753 187.492  0.00  0.00    +0.052 HD
ATOM    125  H   UNL     1     138.459 168.071 187.564  0.00  0.00    +0.052 HD
ATOM    126  H   UNL     1     139.653 168.539 186.344  0.00  0.00    +0.052 HD
ENDBRANCH 122 123
ENDBRANCH 105 122
ENDBRANCH  99 105
ENDBRANCH  97  99
ENDBRANCH  94  97
ENDBRANCH  91  94
ENDBRANCH  85  91
ENDBRANCH  83  85
BRANCH  83 127
ATOM    127  O   UNL     1     145.376 167.270 192.635  0.00  0.00    -0.379 OA
BRANCH 127 128
ATOM    128  C   UNL     1     146.309 166.388 193.252  0.00  0.00    +0.037 C 
ATOM    129  H   UNL     1     145.843 165.437 193.520  0.00  0.00    +0.052 HD
ATOM    130  H   UNL     1     146.670 166.870 194.168  0.00  0.00    +0.052 HD
ATOM    131  H   UNL     1     147.168 166.214 192.603  0.00  0.00    +0.052 HD
ENDBRANCH 127 128
ENDBRANCH  83 127
ENDBRANCH  77  83
ENDBRANCH  25  77
BRANCH   9 132
ATOM    132  O   UNL     1     150.815 163.526 185.021  0.00  0.00    -0.384 OA
ATOM    133  H   UNL     1     151.692 163.947 184.966  0.00  0.00    +0.210 HD
ENDBRANCH   9 132
BRANCH  29 134
ATOM    134  O   UNL     1     144.581 170.512 185.136  0.00  0.00    -0.376 OA
BRANCH 134 135
ATOM    135  C   UNL     1     144.869 171.005 183.836  0.00  0.00    +0.037 C 
ATOM    136  H   UNL     1     144.017 171.572 183.447  0.00  0.00    +0.052 HD
ATOM    137  H   UNL     1     145.048 170.150 183.176  0.00  0.00    +0.052 HD
ATOM    138  H   UNL     1     145.766 171.632 183.840  0.00  0.00    +0.052 HD
ENDBRANCH 134 135
ENDBRANCH  29 134
BRANCH   6 139
ATOM    139  O   UNL     1     146.223 161.418 187.052  0.00  0.00    -0.379 OA
BRANCH 139 140
ATOM    140  C   UNL     1     146.065 160.025 187.302  0.00  0.00    +0.037 C 
ATOM    141  H   UNL     1     145.235 159.850 187.996  0.00  0.00    +0.052 HD
ATOM    142  H   UNL     1     146.988 159.658 187.763  0.00  0.00    +0.052 HD
ATOM    143  H   UNL     1     145.904 159.477 186.370  0.00  0.00    +0.052 HD
ENDBRANCH 139 140
ENDBRANCH   6 139
BRANCH  16 144
ATOM    144  O   UNL     1     153.599 163.535 189.328  0.00  0.00    -0.379 OA
BRANCH 144 145
ATOM    145  C   UNL     1     154.878 163.336 188.745  0.00  0.00    +0.037 C 
ATOM    146  H   UNL     1     155.282 164.276 188.363  0.00  0.00    +0.052 HD
ATOM    147  H   UNL     1     155.572 162.884 189.458  0.00  0.00    +0.052 HD
ATOM    148  H   UNL     1     154.758 162.654 187.898  0.00  0.00    +0.052 HD
ENDBRANCH 144 145
ENDBRANCH  16 144
BRANCH   4 149
ATOM    149  O   UNL     1     144.355 164.026 184.569  0.00  0.00    -0.376 OA
BRANCH 149 150
ATOM    150  C   UNL     1     143.340 163.064 184.827  0.00  0.00    +0.037 C 
ATOM    151  H   UNL     1     142.597 163.517 185.491  0.00  0.00    +0.052 HD
ATOM    152  H   UNL     1     142.839 162.776 183.897  0.00  0.00    +0.052 HD
ATOM    153  H   UNL     1     143.754 162.182 185.325  0.00  0.00    +0.052 HD
ENDBRANCH 149 150
ENDBRANCH   4 149
TORSDOF 33
ENDMDL
