MODEL 1
REMARK VINA RESULT:      -5.5      0.000      0.000
REMARK  Name = Sphinxolide B_conf1
REMARK  33 active torsions:
REMARK  status: ('A' for Active; 'I' for Inactive)
REMARK    1  A    between atoms: C_1  and  C_2
REMARK    2  A    between atoms: C_5  and  O_67
REMARK    3  A    between atoms: C_7  and  O_65
REMARK    4  A    between atoms: C_8  and  C_64
REMARK    5  A    between atoms: C_10  and  O_63
REMARK    6  A    between atoms: C_17  and  O_61
REMARK    7  A    between atoms: C_19  and  C_60
REMARK    8  A    between atoms: C_26  and  C_37
REMARK    9  A    between atoms: C_27  and  C_36
REMARK   10  A    between atoms: C_30  and  O_34
REMARK   11  A    between atoms: C_32  and  O_33
REMARK   12  A    between atoms: O_34  and  C_35
REMARK   13  A    between atoms: C_37  and  C_38
REMARK   14  A    between atoms: C_37  and  C_39
REMARK   15  A    between atoms: C_39  and  C_40
REMARK   16  A    between atoms: C_39  and  O_58
REMARK   17  A    between atoms: C_40  and  C_41
REMARK   18  A    between atoms: C_40  and  C_42
REMARK   19  A    between atoms: C_42  and  C_43
REMARK   20  A    between atoms: C_43  and  C_44
REMARK   21  A    between atoms: C_44  and  C_46
REMARK   22  A    between atoms: C_46  and  C_47
REMARK   23  A    between atoms: C_46  and  C_48
REMARK   24  A    between atoms: C_48  and  C_49
REMARK   25  A    between atoms: C_48  and  O_56
REMARK   26  A    between atoms: C_49  and  C_50
REMARK   27  A    between atoms: C_51  and  N_52
REMARK   28  A    between atoms: N_52  and  C_53
REMARK   29  A    between atoms: O_56  and  C_57
REMARK   30  A    between atoms: O_58  and  C_59
REMARK   31  A    between atoms: O_61  and  C_62
REMARK   32  A    between atoms: O_65  and  C_66
REMARK   33  A    between atoms: O_67  and  C_68
REMARK                            x       y       z     vdW  Elec       q    Type
REMARK                         _______ _______ _______ _____ _____    ______ ____
ROOT
ATOM      1  C   UNL     1     147.341 160.882 187.460  0.00  0.00    +0.000 C 
ATOM      2  C   UNL     1     148.848 160.915 187.628  0.00  0.00    -0.080 C 
ATOM      3  C   UNL     1     149.715 159.889 187.555  0.00  0.00    -0.059 C 
ATOM      4  C   UNL     1     151.224 159.943 187.755  0.00  0.00    +0.079 C 
ATOM      5  C   UNL     1     151.723 161.291 188.303  0.00  0.00    +0.004 C 
ATOM      6  C   UNL     1     153.242 161.382 188.515  0.00  0.00    +0.067 C 
ATOM      7  C   UNL     1     153.677 162.766 189.118  0.00  0.00    +0.022 C 
ATOM      8  C   UNL     1     153.267 163.968 188.198  0.00  0.00    +0.138 C 
ATOM      9  C   UNL     1     152.107 164.842 188.743  0.00  0.00    +0.114 C 
ATOM     10  C   UNL     1     152.611 165.715 189.867  0.00  0.00    -0.029 C 
ATOM     11  C   UNL     1     153.873 166.171 189.776  0.00  0.00    +0.024 C 
ATOM     12  C   UNL     1     154.754 165.858 188.636  0.00  0.00    +0.332 C 
ATOM     13  O   UNL     1     155.768 166.516 188.436  0.00  0.00    -0.246 OA
ATOM     14  O   UNL     1     154.391 164.818 187.846  0.00  0.00    -0.455 OA
ATOM     15  C   UNL     1     151.666 166.016 191.021  0.00  0.00    -0.002 C 
ATOM     16  C   UNL     1     152.145 166.969 192.143  0.00  0.00    +0.066 C 
ATOM     17  C   UNL     1     150.991 167.301 193.128  0.00  0.00    -0.005 C 
ATOM     18  C   UNL     1     150.315 166.112 193.797  0.00  0.00    -0.070 C 
ATOM     19  C   UNL     1     149.076 165.655 193.531  0.00  0.00    -0.062 C 
ATOM     20  C   UNL     1     148.150 166.158 192.538  0.00  0.00    -0.055 C 
ATOM     21  C   UNL     1     146.958 165.581 192.326  0.00  0.00    +0.023 C 
ATOM     22  C   UNL     1     146.053 166.105 191.284  0.00  0.00    +0.332 C 
ATOM     23  O   UNL     1     146.220 167.137 190.654  0.00  0.00    -0.246 OA
ATOM     24  O   UNL     1     145.040 165.218 191.156  0.00  0.00    -0.457 OA
ATOM     25  C   UNL     1     144.001 165.483 190.169  0.00  0.00    +0.114 C 
ATOM     26  C   UNL     1     143.989 164.266 189.190  0.00  0.00    +0.012 C 
ATOM     27  C   UNL     1     145.390 164.063 188.618  0.00  0.00    -0.079 C 
ATOM     28  C   UNL     1     145.810 164.226 187.352  0.00  0.00    -0.059 C 
ATOM     29  C   UNL     1     147.235 164.003 186.919  0.00  0.00    +0.079 C 
ATOM     30  C   UNL     1     147.390 162.938 185.818  0.00  0.00    +0.004 C 
ATOM     31  C   UNL     1     146.885 161.514 186.115  0.00  0.00    +0.064 C 
ATOM     32  H   UNL     1     146.920 161.472 188.283  0.00  0.00    +0.037 HD
ATOM     33  H   UNL     1     149.241 161.906 187.847  0.00  0.00    +0.057 HD
ATOM     34  H   UNL     1     149.335 158.893 187.341  0.00  0.00    +0.059 HD
ATOM     35  H   UNL     1     151.507 159.148 188.456  0.00  0.00    +0.064 HD
ATOM     36  H   UNL     1     151.430 162.072 187.595  0.00  0.00    +0.032 HD
ATOM     37  H   UNL     1     151.224 161.472 189.263  0.00  0.00    +0.032 HD
ATOM     38  H   UNL     1     153.756 161.239 187.554  0.00  0.00    +0.060 HD
ATOM     39  H   UNL     1     153.161 162.862 190.085  0.00  0.00    +0.036 HD
ATOM     40  H   UNL     1     152.934 163.562 187.235  0.00  0.00    +0.077 HD
ATOM     41  H   UNL     1     151.750 165.498 187.940  0.00  0.00    +0.068 HD
ATOM     42  H   UNL     1     154.327 166.822 190.515  0.00  0.00    +0.069 HD
ATOM     43  H   UNL     1     150.748 166.435 190.589  0.00  0.00    +0.034 HD
ATOM     44  H   UNL     1     151.415 165.050 191.478  0.00  0.00    +0.034 HD
ATOM     45  H   UNL     1     152.475 167.909 191.680  0.00  0.00    +0.060 HD
ATOM     46  H   UNL     1     150.255 167.907 192.588  0.00  0.00    +0.034 HD
ATOM     47  H   UNL     1     151.358 167.962 193.921  0.00  0.00    +0.034 HD
ATOM     48  H   UNL     1     148.716 164.796 194.102  0.00  0.00    +0.062 HD
ATOM     49  H   UNL     1     148.434 167.021 191.942  0.00  0.00    +0.062 HD
ATOM     50  H   UNL     1     146.619 164.717 192.886  0.00  0.00    +0.069 HD
ATOM     51  H   UNL     1     144.285 166.366 189.579  0.00  0.00    +0.074 HD
ATOM     52  H   UNL     1     143.801 163.351 189.764  0.00  0.00    +0.038 HD
ATOM     53  H   UNL     1     146.127 163.739 189.355  0.00  0.00    +0.057 HD
ATOM     54  H   UNL     1     145.128 164.542 186.568  0.00  0.00    +0.059 HD
ATOM     55  H   UNL     1     147.863 163.727 187.773  0.00  0.00    +0.064 HD
ATOM     56  H   UNL     1     148.453 162.890 185.547  0.00  0.00    +0.032 HD
ATOM     57  H   UNL     1     146.883 163.305 184.912  0.00  0.00    +0.032 HD
ATOM     58  H   UNL     1     147.235 160.879 185.291  0.00  0.00    +0.060 HD
ENDROOT
BRANCH   1  59
ATOM     59  C   UNL     1     146.740 159.475 187.630  0.00  0.00    -0.057 C 
ATOM     60  H   UNL     1     147.206 158.942 188.467  0.00  0.00    +0.024 HD
ATOM     61  H   UNL     1     145.667 159.532 187.850  0.00  0.00    +0.024 HD
ATOM     62  H   UNL     1     146.866 158.870 186.726  0.00  0.00    +0.024 HD
ENDBRANCH   1  59
BRANCH  26  63
ATOM     63  C   UNL     1     142.928 164.356 188.092  0.00  0.00    -0.056 C 
ATOM     64  H   UNL     1     141.937 164.572 188.503  0.00  0.00    +0.024 HD
ATOM     65  H   UNL     1     143.172 165.141 187.365  0.00  0.00    +0.024 HD
ATOM     66  H   UNL     1     142.870 163.434 187.513  0.00  0.00    +0.024 HD
ENDBRANCH  26  63
BRANCH  18  67
ATOM     67  C   UNL     1     151.134 165.431 194.869  0.00  0.00    -0.043 C 
ATOM     68  H   UNL     1     152.125 165.165 194.490  0.00  0.00    +0.027 HD
ATOM     69  H   UNL     1     150.664 164.509 195.225  0.00  0.00    +0.027 HD
ATOM     70  H   UNL     1     151.251 166.087 195.739  0.00  0.00    +0.027 HD
ENDBRANCH  18  67
BRANCH   7  71
ATOM     71  C   UNL     1     155.178 162.744 189.452  0.00  0.00    -0.057 C 
ATOM     72  H   UNL     1     155.745 163.393 188.777  0.00  0.00    +0.023 HD
ATOM     73  H   UNL     1     155.364 163.061 190.482  0.00  0.00    +0.023 HD
ATOM     74  H   UNL     1     155.588 161.732 189.377  0.00  0.00    +0.023 HD
ENDBRANCH   7  71
BRANCH  31  75
ATOM     75  O   UNL     1     145.455 161.523 186.026  0.00  0.00    -0.391 OA
ATOM     76  H   UNL     1     145.183 162.407 185.732  0.00  0.00    +0.210 HD
ENDBRANCH  31  75
BRANCH  25  77
ATOM     77  C   UNL     1     142.719 165.869 190.980  0.00  0.00    +0.020 C 
ATOM     78  H   UNL     1     141.873 165.558 190.353  0.00  0.00    +0.036 HD
BRANCH  77  79
ATOM     79  C   UNL     1     142.581 165.023 192.257  0.00  0.00    -0.057 C 
ATOM     80  H   UNL     1     143.483 164.465 192.500  0.00  0.00    +0.023 HD
ATOM     81  H   UNL     1     141.751 164.313 192.167  0.00  0.00    +0.023 HD
ATOM     82  H   UNL     1     142.360 165.669 193.115  0.00  0.00    +0.023 HD
ENDBRANCH  77  79
BRANCH  77  83
ATOM     83  C   UNL     1     142.483 167.385 191.294  0.00  0.00    +0.067 C 
ATOM     84  H   UNL     1     141.447 167.485 191.651  0.00  0.00    +0.060 HD
BRANCH  83  85
ATOM     85  C   UNL     1     142.611 168.317 190.045  0.00  0.00    -0.017 C 
ATOM     86  H   UNL     1     143.628 168.284 189.657  0.00  0.00    +0.032 HD
BRANCH  85  87
ATOM     87  C   UNL     1     141.702 167.801 188.918  0.00  0.00    -0.060 C 
ATOM     88  H   UNL     1     140.708 168.248 188.988  0.00  0.00    +0.023 HD
ATOM     89  H   UNL     1     142.101 168.056 187.931  0.00  0.00    +0.023 HD
ATOM     90  H   UNL     1     141.590 166.713 188.966  0.00  0.00    +0.023 HD
ENDBRANCH  85  87
BRANCH  85  91
ATOM     91  C   UNL     1     142.291 169.807 190.315  0.00  0.00    -0.041 C 
ATOM     92  H   UNL     1     142.930 170.181 191.125  0.00  0.00    +0.027 HD
ATOM     93  H   UNL     1     141.261 169.909 190.678  0.00  0.00    +0.027 HD
BRANCH  91  94
ATOM     94  C   UNL     1     142.462 170.696 189.075  0.00  0.00    +0.007 C 
ATOM     95  H   UNL     1     142.868 170.081 188.264  0.00  0.00    +0.034 HD
ATOM     96  H   UNL     1     141.498 171.086 188.751  0.00  0.00    +0.034 HD
BRANCH  94  97
ATOM     97  C   UNL     1     143.420 171.866 189.291  0.00  0.00    +0.139 C 
ATOM     98  O   UNL     1     143.158 173.000 188.879  0.00  0.00    -0.297 OA
BRANCH  97  99
ATOM     99  C   UNL     1     144.701 171.647 190.098  0.00  0.00    +0.041 C 
ATOM    100  H   UNL     1     144.575 170.648 190.536  0.00  0.00    +0.040 HD
BRANCH  99 101
ATOM    101  C   UNL     1     144.856 172.573 191.301  0.00  0.00    -0.053 C 
ATOM    102  H   UNL     1     145.091 173.603 191.011  0.00  0.00    +0.024 HD
ATOM    103  H   UNL     1     145.652 172.219 191.963  0.00  0.00    +0.024 HD
ATOM    104  H   UNL     1     143.930 172.601 191.884  0.00  0.00    +0.024 HD
ENDBRANCH  99 101
BRANCH  99 105
ATOM    105  C   UNL     1     145.935 171.606 189.169  0.00  0.00    +0.071 C 
ATOM    106  H   UNL     1     146.605 172.445 189.399  0.00  0.00    +0.061 HD
BRANCH 105 107
ATOM    107  C   UNL     1     146.740 170.293 189.283  0.00  0.00    -0.006 C 
ATOM    108  H   UNL     1     146.068 169.447 189.446  0.00  0.00    +0.033 HD
ATOM    109  H   UNL     1     147.285 170.107 188.349  0.00  0.00    +0.033 HD
BRANCH 107 110
ATOM    110  C   UNL     1     147.716 170.298 190.436  0.00  0.00    -0.067 C 
ATOM    111  C   UNL     1     148.309 171.416 190.884  0.00  0.00    -0.005 C 
ATOM    112  H   UNL     1     147.934 169.329 190.874  0.00  0.00    +0.059 HD
ATOM    113  H   UNL     1     148.055 172.367 190.420  0.00  0.00    +0.078 HD
BRANCH 111 114
ATOM    114  N   UNL     1     149.238 171.486 191.911  0.00  0.00    -0.284 N 
ATOM    115  C   UNL     1     149.031 172.334 192.995  0.00  0.00    +0.206 C 
ATOM    116  O   UNL     1     149.775 172.483 193.958  0.00  0.00    -0.279 OA
ATOM    117  H   UNL     1     148.088 172.902 192.918  0.00  0.00    +0.126 HD
BRANCH 114 118
ATOM    118  C   UNL     1     150.450 170.681 191.898  0.00  0.00    +0.007 C 
ATOM    119  H   UNL     1     150.365 169.875 192.635  0.00  0.00    +0.043 HD
ATOM    120  H   UNL     1     150.626 170.225 190.920  0.00  0.00    +0.043 HD
ATOM    121  H   UNL     1     151.307 171.320 192.137  0.00  0.00    +0.043 HD
ENDBRANCH 114 118
ENDBRANCH 111 114
ENDBRANCH 107 110
ENDBRANCH 105 107
BRANCH 105 122
ATOM    122  O   UNL     1     145.494 171.702 187.800  0.00  0.00    -0.379 OA
BRANCH 122 123
ATOM    123  C   UNL     1     146.009 170.669 186.969  0.00  0.00    +0.037 C 
ATOM    124  H   UNL     1     145.425 169.763 187.150  0.00  0.00    +0.052 HD
ATOM    125  H   UNL     1     147.054 170.462 187.220  0.00  0.00    +0.052 HD
ATOM    126  H   UNL     1     145.922 170.933 185.912  0.00  0.00    +0.052 HD
ENDBRANCH 122 123
ENDBRANCH 105 122
ENDBRANCH  99 105
ENDBRANCH  97  99
ENDBRANCH  94  97
ENDBRANCH  91  94
ENDBRANCH  85  91
ENDBRANCH  83  85
BRANCH  83 127
ATOM    127  O   UNL     1     143.368 167.800 192.334  0.00  0.00    -0.379 OA
BRANCH 127 128
ATOM    128  C   UNL     1     142.730 167.981 193.595  0.00  0.00    +0.037 C 
ATOM    129  H   UNL     1     141.641 167.967 193.483  0.00  0.00    +0.052 HD
ATOM    130  H   UNL     1     143.030 168.958 193.983  0.00  0.00    +0.052 HD
ATOM    131  H   UNL     1     143.047 167.210 194.303  0.00  0.00    +0.052 HD
ENDBRANCH 127 128
ENDBRANCH  83 127
ENDBRANCH  77  83
ENDBRANCH  25  77
BRANCH   9 132
ATOM    132  O   UNL     1     151.012 164.044 189.162  0.00  0.00    -0.384 OA
ATOM    133  H   UNL     1     151.366 163.337 189.728  0.00  0.00    +0.210 HD
ENDBRANCH   9 132
BRANCH  29 134
ATOM    134  O   UNL     1     147.758 165.226 186.372  0.00  0.00    -0.376 OA
BRANCH 134 135
ATOM    135  C   UNL     1     148.699 165.880 187.213  0.00  0.00    +0.037 C 
ATOM    136  H   UNL     1     149.068 165.151 187.940  0.00  0.00    +0.052 HD
ATOM    137  H   UNL     1     149.554 166.247 186.639  0.00  0.00    +0.052 HD
ATOM    138  H   UNL     1     148.227 166.703 187.762  0.00  0.00    +0.052 HD
ENDBRANCH 134 135
ENDBRANCH  29 134
BRANCH   6 139
ATOM    139  O   UNL     1     153.605 160.341 189.442  0.00  0.00    -0.379 OA
BRANCH 139 140
ATOM    140  C   UNL     1     154.506 159.391 188.884  0.00  0.00    +0.037 C 
ATOM    141  H   UNL     1     153.991 158.428 188.816  0.00  0.00    +0.052 HD
ATOM    142  H   UNL     1     154.810 159.694 187.880  0.00  0.00    +0.052 HD
ATOM    143  H   UNL     1     155.389 159.270 189.518  0.00  0.00    +0.052 HD
ENDBRANCH 139 140
ENDBRANCH   6 139
BRANCH  16 144
ATOM    144  O   UNL     1     153.259 166.365 192.815  0.00  0.00    -0.379 OA
BRANCH 144 145
ATOM    145  C   UNL     1     154.047 167.279 193.567  0.00  0.00    +0.037 C 
ATOM    146  H   UNL     1     153.409 167.946 194.156  0.00  0.00    +0.052 HD
ATOM    147  H   UNL     1     154.627 167.886 192.865  0.00  0.00    +0.052 HD
ATOM    148  H   UNL     1     154.748 166.750 194.219  0.00  0.00    +0.052 HD
ENDBRANCH 144 145
ENDBRANCH  16 144
BRANCH   4 149
ATOM    149  O   UNL     1     151.856 159.726 186.484  0.00  0.00    -0.376 OA
BRANCH 149 150
ATOM    150  C   UNL     1     152.080 158.355 186.186  0.00  0.00    +0.037 C 
ATOM    151  H   UNL     1     152.271 158.213 185.118  0.00  0.00    +0.052 HD
ATOM    152  H   UNL     1     151.180 157.799 186.452  0.00  0.00    +0.052 HD
ATOM    153  H   UNL     1     152.912 157.958 186.773  0.00  0.00    +0.052 HD
ENDBRANCH 149 150
ENDBRANCH   4 149
TORSDOF 33
ENDMDL
MODEL 2
REMARK VINA RESULT:      -5.3      1.423      2.009
REMARK  Name = Sphinxolide B_conf1
REMARK  33 active torsions:
REMARK  status: ('A' for Active; 'I' for Inactive)
REMARK    1  A    between atoms: C_1  and  C_2
REMARK    2  A    between atoms: C_5  and  O_67
REMARK    3  A    between atoms: C_7  and  O_65
REMARK    4  A    between atoms: C_8  and  C_64
REMARK    5  A    between atoms: C_10  and  O_63
REMARK    6  A    between atoms: C_17  and  O_61
REMARK    7  A    between atoms: C_19  and  C_60
REMARK    8  A    between atoms: C_26  and  C_37
REMARK    9  A    between atoms: C_27  and  C_36
REMARK   10  A    between atoms: C_30  and  O_34
REMARK   11  A    between atoms: C_32  and  O_33
REMARK   12  A    between atoms: O_34  and  C_35
REMARK   13  A    between atoms: C_37  and  C_38
REMARK   14  A    between atoms: C_37  and  C_39
REMARK   15  A    between atoms: C_39  and  C_40
REMARK   16  A    between atoms: C_39  and  O_58
REMARK   17  A    between atoms: C_40  and  C_41
REMARK   18  A    between atoms: C_40  and  C_42
REMARK   19  A    between atoms: C_42  and  C_43
REMARK   20  A    between atoms: C_43  and  C_44
REMARK   21  A    between atoms: C_44  and  C_46
REMARK   22  A    between atoms: C_46  and  C_47
REMARK   23  A    between atoms: C_46  and  C_48
REMARK   24  A    between atoms: C_48  and  C_49
REMARK   25  A    between atoms: C_48  and  O_56
REMARK   26  A    between atoms: C_49  and  C_50
REMARK   27  A    between atoms: C_51  and  N_52
REMARK   28  A    between atoms: N_52  and  C_53
REMARK   29  A    between atoms: O_56  and  C_57
REMARK   30  A    between atoms: O_58  and  C_59
REMARK   31  A    between atoms: O_61  and  C_62
REMARK   32  A    between atoms: O_65  and  C_66
REMARK   33  A    between atoms: O_67  and  C_68
REMARK                            x       y       z     vdW  Elec       q    Type
REMARK                         _______ _______ _______ _____ _____    ______ ____
ROOT
ATOM      1  C   UNL     1     147.674 160.710 186.937  0.00  0.00    +0.000 C 
ATOM      2  C   UNL     1     149.155 160.710 187.263  0.00  0.00    -0.080 C 
ATOM      3  C   UNL     1     149.989 159.656 187.343  0.00  0.00    -0.059 C 
ATOM      4  C   UNL     1     151.469 159.679 187.700  0.00  0.00    +0.079 C 
ATOM      5  C   UNL     1     151.955 161.043 188.219  0.00  0.00    +0.004 C 
ATOM      6  C   UNL     1     153.446 161.104 188.587  0.00  0.00    +0.067 C 
ATOM      7  C   UNL     1     153.863 162.509 189.152  0.00  0.00    +0.022 C 
ATOM      8  C   UNL     1     153.594 163.664 188.125  0.00  0.00    +0.138 C 
ATOM      9  C   UNL     1     152.415 164.603 188.491  0.00  0.00    +0.114 C 
ATOM     10  C   UNL     1     152.828 165.529 189.610  0.00  0.00    -0.029 C 
ATOM     11  C   UNL     1     154.107 165.941 189.628  0.00  0.00    +0.024 C 
ATOM     12  C   UNL     1     155.092 165.534 188.608  0.00  0.00    +0.332 C 
ATOM     13  O   UNL     1     156.143 166.149 188.481  0.00  0.00    -0.246 OA
ATOM     14  O   UNL     1     154.778 164.459 187.846  0.00  0.00    -0.455 OA
ATOM     15  C   UNL     1     151.778 165.927 190.637  0.00  0.00    -0.002 C 
ATOM     16  C   UNL     1     152.169 166.932 191.746  0.00  0.00    +0.066 C 
ATOM     17  C   UNL     1     150.930 167.357 192.581  0.00  0.00    -0.005 C 
ATOM     18  C   UNL     1     150.147 166.231 193.242  0.00  0.00    -0.070 C 
ATOM     19  C   UNL     1     148.928 165.795 192.872  0.00  0.00    -0.062 C 
ATOM     20  C   UNL     1     148.129 166.261 191.758  0.00  0.00    -0.055 C 
ATOM     21  C   UNL     1     146.946 165.708 191.454  0.00  0.00    +0.023 C 
ATOM     22  C   UNL     1     146.175 166.192 190.292  0.00  0.00    +0.332 C 
ATOM     23  O   UNL     1     146.444 167.178 189.625  0.00  0.00    -0.246 OA
ATOM     24  O   UNL     1     145.150 165.328 190.108  0.00  0.00    -0.457 OA
ATOM     25  C   UNL     1     144.231 165.562 189.002  0.00  0.00    +0.114 C 
ATOM     26  C   UNL     1     144.279 164.288 188.100  0.00  0.00    +0.012 C 
ATOM     27  C   UNL     1     145.725 164.010 187.694  0.00  0.00    -0.079 C 
ATOM     28  C   UNL     1     146.281 164.082 186.472  0.00  0.00    -0.059 C 
ATOM     29  C   UNL     1     147.735 163.793 186.208  0.00  0.00    +0.079 C 
ATOM     30  C   UNL     1     147.967 162.658 185.194  0.00  0.00    +0.004 C 
ATOM     31  C   UNL     1     147.385 161.271 185.517  0.00  0.00    +0.064 C 
ATOM     32  H   UNL     1     147.190 161.361 187.675  0.00  0.00    +0.037 HD
ATOM     33  H   UNL     1     149.558 161.700 187.466  0.00  0.00    +0.057 HD
ATOM     34  H   UNL     1     149.599 158.660 187.148  0.00  0.00    +0.059 HD
ATOM     35  H   UNL     1     151.650 158.921 188.472  0.00  0.00    +0.064 HD
ATOM     36  H   UNL     1     151.766 161.788 187.440  0.00  0.00    +0.032 HD
ATOM     37  H   UNL     1     151.365 161.298 189.108  0.00  0.00    +0.032 HD
ATOM     38  H   UNL     1     154.052 160.888 187.696  0.00  0.00    +0.060 HD
ATOM     39  H   UNL     1     153.252 162.679 190.050  0.00  0.00    +0.036 HD
ATOM     40  H   UNL     1     153.350 163.210 187.157  0.00  0.00    +0.077 HD
ATOM     41  H   UNL     1     152.166 165.218 187.618  0.00  0.00    +0.068 HD
ATOM     42  H   UNL     1     154.504 166.624 190.372  0.00  0.00    +0.069 HD
ATOM     43  H   UNL     1     150.925 166.344 190.085  0.00  0.00    +0.034 HD
ATOM     44  H   UNL     1     151.447 164.998 191.119  0.00  0.00    +0.034 HD
ATOM     45  H   UNL     1     152.579 167.833 191.268  0.00  0.00    +0.060 HD
ATOM     46  H   UNL     1     150.277 167.950 191.932  0.00  0.00    +0.034 HD
ATOM     47  H   UNL     1     151.235 168.055 193.370  0.00  0.00    +0.034 HD
ATOM     48  H   UNL     1     148.480 164.983 193.450  0.00  0.00    +0.062 HD
ATOM     49  H   UNL     1     148.504 167.078 191.147  0.00  0.00    +0.062 HD
ATOM     50  H   UNL     1     146.520 164.889 192.023  0.00  0.00    +0.069 HD
ATOM     51  H   UNL     1     144.606 166.398 188.395  0.00  0.00    +0.074 HD
ATOM     52  H   UNL     1     144.000 163.415 188.702  0.00  0.00    +0.038 HD
ATOM     53  H   UNL     1     146.369 163.710 188.522  0.00  0.00    +0.057 HD
ATOM     54  H   UNL     1     145.696 164.369 185.603  0.00  0.00    +0.059 HD
ATOM     55  H   UNL     1     148.260 163.552 187.139  0.00  0.00    +0.064 HD
ATOM     56  H   UNL     1     149.050 162.563 185.041  0.00  0.00    +0.032 HD
ATOM     57  H   UNL     1     147.571 162.983 184.219  0.00  0.00    +0.032 HD
ATOM     58  H   UNL     1     147.796 160.576 184.774  0.00  0.00    +0.060 HD
ENDROOT
BRANCH   1  59
ATOM     59  C   UNL     1     147.010 159.334 187.124  0.00  0.00    -0.057 C 
ATOM     60  H   UNL     1     146.903 158.811 186.166  0.00  0.00    +0.024 HD
ATOM     61  H   UNL     1     147.619 158.690 187.769  0.00  0.00    +0.024 HD
ATOM     62  H   UNL     1     146.017 159.422 187.577  0.00  0.00    +0.024 HD
ENDBRANCH   1  59
BRANCH  26  63
ATOM     63  C   UNL     1     143.344 164.341 186.891  0.00  0.00    -0.056 C 
ATOM     64  H   UNL     1     143.461 163.461 186.250  0.00  0.00    +0.024 HD
ATOM     65  H   UNL     1     142.293 164.398 187.201  0.00  0.00    +0.024 HD
ATOM     66  H   UNL     1     143.516 165.233 186.289  0.00  0.00    +0.024 HD
ENDBRANCH  26  63
BRANCH  18  67
ATOM     67  C   UNL     1     150.824 165.594 194.433  0.00  0.00    -0.043 C 
ATOM     68  H   UNL     1     151.721 166.154 194.714  0.00  0.00    +0.027 HD
ATOM     69  H   UNL     1     151.135 164.565 194.231  0.00  0.00    +0.027 HD
ATOM     70  H   UNL     1     150.144 165.562 195.291  0.00  0.00    +0.027 HD
ENDBRANCH  18  67
BRANCH   7  71
ATOM     71  C   UNL     1     155.318 162.466 189.645  0.00  0.00    -0.057 C 
ATOM     72  H   UNL     1     155.661 161.435 189.784  0.00  0.00    +0.023 HD
ATOM     73  H   UNL     1     155.993 162.968 188.948  0.00  0.00    +0.023 HD
ATOM     74  H   UNL     1     155.432 162.994 190.597  0.00  0.00    +0.023 HD
ENDBRANCH   7  71
BRANCH  31  75
ATOM     75  O   UNL     1     145.973 161.315 185.275  0.00  0.00    -0.391 OA
ATOM     76  H   UNL     1     145.817 160.984 184.376  0.00  0.00    +0.210 HD
ENDBRANCH  31  75
BRANCH  25  77
ATOM     77  C   UNL     1     142.885 166.033 189.648  0.00  0.00    +0.020 C 
ATOM     78  H   UNL     1     142.110 165.394 189.205  0.00  0.00    +0.036 HD
BRANCH  77  79
ATOM     79  C   UNL     1     142.834 165.710 191.150  0.00  0.00    -0.057 C 
ATOM     80  H   UNL     1     143.773 165.314 191.534  0.00  0.00    +0.023 HD
ATOM     81  H   UNL     1     142.041 164.986 191.367  0.00  0.00    +0.023 HD
ATOM     82  H   UNL     1     142.608 166.617 191.724  0.00  0.00    +0.023 HD
ENDBRANCH  77  79
BRANCH  77  83
ATOM     83  C   UNL     1     142.426 167.507 189.384  0.00  0.00    +0.067 C 
ATOM     84  H   UNL     1     143.072 167.910 188.589  0.00  0.00    +0.060 HD
BRANCH  83  85
ATOM     85  C   UNL     1     142.603 168.454 190.616  0.00  0.00    -0.017 C 
ATOM     86  H   UNL     1     142.669 167.867 191.531  0.00  0.00    +0.032 HD
BRANCH  85  87
ATOM     87  C   UNL     1     143.931 169.218 190.498  0.00  0.00    -0.060 C 
ATOM     88  H   UNL     1     144.570 168.766 189.736  0.00  0.00    +0.023 HD
ATOM     89  H   UNL     1     143.770 170.261 190.206  0.00  0.00    +0.023 HD
ATOM     90  H   UNL     1     144.478 169.214 191.446  0.00  0.00    +0.023 HD
ENDBRANCH  85  87
BRANCH  85  91
ATOM     91  C   UNL     1     141.450 169.465 190.824  0.00  0.00    -0.041 C 
ATOM     92  H   UNL     1     140.613 168.972 191.334  0.00  0.00    +0.027 HD
ATOM     93  H   UNL     1     141.056 169.789 189.852  0.00  0.00    +0.027 HD
BRANCH  91  94
ATOM     94  C   UNL     1     141.873 170.709 191.619  0.00  0.00    +0.007 C 
ATOM     95  H   UNL     1     141.367 170.685 192.590  0.00  0.00    +0.034 HD
ATOM     96  H   UNL     1     142.947 170.699 191.798  0.00  0.00    +0.034 HD
BRANCH  94  97
ATOM     97  C   UNL     1     141.500 172.024 190.937  0.00  0.00    +0.139 C 
ATOM     98  O   UNL     1     140.330 172.295 190.651  0.00  0.00    -0.297 OA
BRANCH  97  99
ATOM     99  C   UNL     1     142.589 173.063 190.665  0.00  0.00    +0.041 C 
ATOM    100  H   UNL     1     142.127 174.018 190.952  0.00  0.00    +0.040 HD
BRANCH  99 101
ATOM    101  C   UNL     1     142.941 173.240 189.191  0.00  0.00    -0.053 C 
ATOM    102  H   UNL     1     142.221 173.871 188.660  0.00  0.00    +0.024 HD
ATOM    103  H   UNL     1     142.981 172.271 188.683  0.00  0.00    +0.024 HD
ATOM    104  H   UNL     1     143.926 173.707 189.086  0.00  0.00    +0.024 HD
ENDBRANCH  99 101
BRANCH  99 105
ATOM    105  C   UNL     1     143.810 172.833 191.583  0.00  0.00    +0.071 C 
ATOM    106  H   UNL     1     143.593 172.030 192.302  0.00  0.00    +0.061 HD
BRANCH 105 107
ATOM    107  C   UNL     1     145.094 172.461 190.809  0.00  0.00    -0.006 C 
ATOM    108  H   UNL     1     145.014 171.449 190.405  0.00  0.00    +0.033 HD
ATOM    109  H   UNL     1     145.232 173.145 189.964  0.00  0.00    +0.033 HD
BRANCH 107 110
ATOM    110  C   UNL     1     146.331 172.483 191.675  0.00  0.00    -0.067 C 
ATOM    111  C   UNL     1     147.433 171.771 191.391  0.00  0.00    -0.005 C 
ATOM    112  H   UNL     1     146.272 173.098 192.567  0.00  0.00    +0.059 HD
ATOM    113  H   UNL     1     147.452 171.173 190.482  0.00  0.00    +0.078 HD
BRANCH 111 114
ATOM    114  N   UNL     1     148.586 171.719 192.160  0.00  0.00    -0.284 N 
ATOM    115  C   UNL     1     149.659 170.922 191.771  0.00  0.00    +0.206 C 
ATOM    116  O   UNL     1     150.725 170.792 192.362  0.00  0.00    -0.279 OA
ATOM    117  H   UNL     1     149.466 170.376 190.830  0.00  0.00    +0.126 HD
BRANCH 114 118
ATOM    118  C   UNL     1     148.720 172.490 193.386  0.00  0.00    +0.007 C 
ATOM    119  H   UNL     1     147.785 173.023 193.590  0.00  0.00    +0.043 HD
ATOM    120  H   UNL     1     148.940 171.852 194.247  0.00  0.00    +0.043 HD
ATOM    121  H   UNL     1     149.542 173.205 193.270  0.00  0.00    +0.043 HD
ENDBRANCH 114 118
ENDBRANCH 111 114
ENDBRANCH 107 110
ENDBRANCH 105 107
BRANCH 105 122
ATOM    122  O   UNL     1     144.097 174.053 192.296  0.00  0.00    -0.379 OA
BRANCH 122 123
ATOM    123  C   UNL     1     142.928 174.740 192.727  0.00  0.00    +0.037 C 
ATOM    124  H   UNL     1     142.758 174.496 193.778  0.00  0.00    +0.052 HD
ATOM    125  H   UNL     1     142.058 174.412 192.151  0.00  0.00    +0.052 HD
ATOM    126  H   UNL     1     143.053 175.822 192.638  0.00  0.00    +0.052 HD
ENDBRANCH 122 123
ENDBRANCH 105 122
ENDBRANCH  99 105
ENDBRANCH  97  99
ENDBRANCH  94  97
ENDBRANCH  91  94
ENDBRANCH  85  91
ENDBRANCH  83  85
BRANCH  83 127
ATOM    127  O   UNL     1     141.076 167.512 188.925  0.00  0.00    -0.379 OA
BRANCH 127 128
ATOM    128  C   UNL     1     140.935 167.176 187.548  0.00  0.00    +0.037 C 
ATOM    129  H   UNL     1     141.785 166.580 187.206  0.00  0.00    +0.052 HD
ATOM    130  H   UNL     1     140.909 168.109 186.978  0.00  0.00    +0.052 HD
ATOM    131  H   UNL     1     140.000 166.635 187.376  0.00  0.00    +0.052 HD
ENDBRANCH 127 128
ENDBRANCH  83 127
ENDBRANCH  77  83
ENDBRANCH  25  77
BRANCH   9 132
ATOM    132  O   UNL     1     151.255 163.864 188.836  0.00  0.00    -0.384 OA
ATOM    133  H   UNL     1     151.549 163.005 189.185  0.00  0.00    +0.210 HD
ENDBRANCH   9 132
BRANCH  29 134
ATOM    134  O   UNL     1     148.355 164.965 185.650  0.00  0.00    -0.376 OA
BRANCH 134 135
ATOM    135  C   UNL     1     148.838 165.882 186.623  0.00  0.00    +0.037 C 
ATOM    136  H   UNL     1     148.531 165.523 187.609  0.00  0.00    +0.052 HD
ATOM    137  H   UNL     1     149.931 165.934 186.608  0.00  0.00    +0.052 HD
ATOM    138  H   UNL     1     148.407 166.877 186.470  0.00  0.00    +0.052 HD
ENDBRANCH 134 135
ENDBRANCH  29 134
BRANCH   6 139
ATOM    139  O   UNL     1     153.673 160.113 189.606  0.00  0.00    -0.379 OA
BRANCH 139 140
ATOM    140  C   UNL     1     154.598 159.107 189.206  0.00  0.00    +0.037 C 
ATOM    141  H   UNL     1     154.037 158.199 188.967  0.00  0.00    +0.052 HD
ATOM    142  H   UNL     1     155.144 159.422 188.314  0.00  0.00    +0.052 HD
ATOM    143  H   UNL     1     155.302 158.881 190.011  0.00  0.00    +0.052 HD
ENDBRANCH 139 140
ENDBRANCH   6 139
BRANCH  16 144
ATOM    144  O   UNL     1     153.185 166.340 192.567  0.00  0.00    -0.379 OA
BRANCH 144 145
ATOM    145  C   UNL     1     153.861 167.263 193.410  0.00  0.00    +0.037 C 
ATOM    146  H   UNL     1     154.903 167.384 193.094  0.00  0.00    +0.052 HD
ATOM    147  H   UNL     1     153.854 166.862 194.429  0.00  0.00    +0.052 HD
ATOM    148  H   UNL     1     153.354 168.231 193.422  0.00  0.00    +0.052 HD
ENDBRANCH 144 145
ENDBRANCH  16 144
BRANCH   4 149
ATOM    149  O   UNL     1     152.223 159.367 186.518  0.00  0.00    -0.376 OA
BRANCH 149 150
ATOM    150  C   UNL     1     152.434 157.975 186.329  0.00  0.00    +0.037 C 
ATOM    151  H   UNL     1     152.876 157.776 185.348  0.00  0.00    +0.052 HD
ATOM    152  H   UNL     1     151.465 157.476 186.378  0.00  0.00    +0.052 HD
ATOM    153  H   UNL     1     153.070 157.564 187.118  0.00  0.00    +0.052 HD
ENDBRANCH 149 150
ENDBRANCH   4 149
TORSDOF 33
ENDMDL
MODEL 3
REMARK VINA RESULT:      -5.2      3.003     11.661
REMARK  Name = Sphinxolide B_conf1
REMARK  33 active torsions:
REMARK  status: ('A' for Active; 'I' for Inactive)
REMARK    1  A    between atoms: C_1  and  C_2
REMARK    2  A    between atoms: C_5  and  O_67
REMARK    3  A    between atoms: C_7  and  O_65
REMARK    4  A    between atoms: C_8  and  C_64
REMARK    5  A    between atoms: C_10  and  O_63
REMARK    6  A    between atoms: C_17  and  O_61
REMARK    7  A    between atoms: C_19  and  C_60
REMARK    8  A    between atoms: C_26  and  C_37
REMARK    9  A    between atoms: C_27  and  C_36
REMARK   10  A    between atoms: C_30  and  O_34
REMARK   11  A    between atoms: C_32  and  O_33
REMARK   12  A    between atoms: O_34  and  C_35
REMARK   13  A    between atoms: C_37  and  C_38
REMARK   14  A    between atoms: C_37  and  C_39
REMARK   15  A    between atoms: C_39  and  C_40
REMARK   16  A    between atoms: C_39  and  O_58
REMARK   17  A    between atoms: C_40  and  C_41
REMARK   18  A    between atoms: C_40  and  C_42
REMARK   19  A    between atoms: C_42  and  C_43
REMARK   20  A    between atoms: C_43  and  C_44
REMARK   21  A    between atoms: C_44  and  C_46
REMARK   22  A    between atoms: C_46  and  C_47
REMARK   23  A    between atoms: C_46  and  C_48
REMARK   24  A    between atoms: C_48  and  C_49
REMARK   25  A    between atoms: C_48  and  O_56
REMARK   26  A    between atoms: C_49  and  C_50
REMARK   27  A    between atoms: C_51  and  N_52
REMARK   28  A    between atoms: N_52  and  C_53
REMARK   29  A    between atoms: O_56  and  C_57
REMARK   30  A    between atoms: O_58  and  C_59
REMARK   31  A    between atoms: O_61  and  C_62
REMARK   32  A    between atoms: O_65  and  C_66
REMARK   33  A    between atoms: O_67  and  C_68
REMARK                            x       y       z     vdW  Elec       q    Type
REMARK                         _______ _______ _______ _____ _____    ______ ____
ROOT
ATOM      1  C   UNL     1     147.154 165.969 193.117  0.00  0.00    +0.000 C 
ATOM      2  C   UNL     1     145.885 166.239 192.332  0.00  0.00    -0.080 C 
ATOM      3  C   UNL     1     144.623 165.896 192.649  0.00  0.00    -0.059 C 
ATOM      4  C   UNL     1     143.365 166.154 191.829  0.00  0.00    +0.079 C 
ATOM      5  C   UNL     1     143.653 166.669 190.409  0.00  0.00    +0.004 C 
ATOM      6  C   UNL     1     142.406 166.943 189.553  0.00  0.00    +0.067 C 
ATOM      7  C   UNL     1     142.774 167.423 188.102  0.00  0.00    +0.022 C 
ATOM      8  C   UNL     1     143.625 168.740 188.112  0.00  0.00    +0.138 C 
ATOM      9  C   UNL     1     145.113 168.559 187.715  0.00  0.00    +0.114 C 
ATOM     10  C   UNL     1     145.223 168.354 186.224  0.00  0.00    -0.029 C 
ATOM     11  C   UNL     1     144.347 169.012 185.445  0.00  0.00    +0.024 C 
ATOM     12  C   UNL     1     143.314 169.913 185.989  0.00  0.00    +0.332 C 
ATOM     13  O   UNL     1     142.741 170.712 185.260  0.00  0.00    -0.246 OA
ATOM     14  O   UNL     1     143.035 169.799 187.311  0.00  0.00    -0.455 OA
ATOM     15  C   UNL     1     146.307 167.420 185.706  0.00  0.00    -0.002 C 
ATOM     16  C   UNL     1     146.477 167.257 184.176  0.00  0.00    +0.066 C 
ATOM     17  C   UNL     1     147.740 166.418 183.838  0.00  0.00    -0.005 C 
ATOM     18  C   UNL     1     147.808 165.028 184.454  0.00  0.00    -0.070 C 
ATOM     19  C   UNL     1     148.627 164.647 185.453  0.00  0.00    -0.062 C 
ATOM     20  C   UNL     1     149.572 165.470 186.176  0.00  0.00    -0.055 C 
ATOM     21  C   UNL     1     150.298 164.988 187.196  0.00  0.00    +0.023 C 
ATOM     22  C   UNL     1     151.231 165.867 187.928  0.00  0.00    +0.332 C 
ATOM     23  O   UNL     1     151.529 167.007 187.606  0.00  0.00    -0.246 OA
ATOM     24  O   UNL     1     151.656 165.180 189.011  0.00  0.00    -0.457 OA
ATOM     25  C   UNL     1     152.584 165.829 189.930  0.00  0.00    +0.114 C 
ATOM     26  C   UNL     1     151.895 165.841 191.331  0.00  0.00    +0.012 C 
ATOM     27  C   UNL     1     150.524 166.505 191.215  0.00  0.00    -0.079 C 
ATOM     28  C   UNL     1     150.111 167.671 191.741  0.00  0.00    -0.059 C 
ATOM     29  C   UNL     1     148.725 168.224 191.538  0.00  0.00    +0.079 C 
ATOM     30  C   UNL     1     147.954 168.461 192.850  0.00  0.00    +0.004 C 
ATOM     31  C   UNL     1     147.720 167.256 193.778  0.00  0.00    +0.064 C 
ATOM     32  H   UNL     1     147.892 165.591 192.400  0.00  0.00    +0.037 HD
ATOM     33  H   UNL     1     146.055 166.764 191.394  0.00  0.00    +0.057 HD
ATOM     34  H   UNL     1     144.439 165.367 193.581  0.00  0.00    +0.059 HD
ATOM     35  H   UNL     1     142.801 165.216 191.758  0.00  0.00    +0.064 HD
ATOM     36  H   UNL     1     144.218 167.603 190.496  0.00  0.00    +0.032 HD
ATOM     37  H   UNL     1     144.273 165.924 189.896  0.00  0.00    +0.032 HD
ATOM     38  H   UNL     1     141.793 167.717 190.035  0.00  0.00    +0.060 HD
ATOM     39  H   UNL     1     143.366 166.616 187.647  0.00  0.00    +0.036 HD
ATOM     40  H   UNL     1     143.614 169.146 189.130  0.00  0.00    +0.077 HD
ATOM     41  H   UNL     1     145.663 169.473 187.972  0.00  0.00    +0.068 HD
ATOM     42  H   UNL     1     144.351 168.954 184.361  0.00  0.00    +0.069 HD
ATOM     43  H   UNL     1     147.263 167.770 186.118  0.00  0.00    +0.034 HD
ATOM     44  H   UNL     1     146.096 166.431 186.132  0.00  0.00    +0.034 HD
ATOM     45  H   UNL     1     146.607 168.255 183.735  0.00  0.00    +0.060 HD
ATOM     46  H   UNL     1     148.619 167.007 184.122  0.00  0.00    +0.034 HD
ATOM     47  H   UNL     1     147.829 166.303 182.751  0.00  0.00    +0.034 HD
ATOM     48  H   UNL     1     148.574 163.607 185.787  0.00  0.00    +0.062 HD
ATOM     49  H   UNL     1     149.690 166.512 185.889  0.00  0.00    +0.062 HD
ATOM     50  H   UNL     1     150.223 163.959 187.531  0.00  0.00    +0.069 HD
ATOM     51  H   UNL     1     152.711 166.878 189.626  0.00  0.00    +0.074 HD
ATOM     52  H   UNL     1     151.666 164.810 191.623  0.00  0.00    +0.038 HD
ATOM     53  H   UNL     1     149.803 165.936 190.626  0.00  0.00    +0.057 HD
ATOM     54  H   UNL     1     150.775 168.286 192.342  0.00  0.00    +0.059 HD
ATOM     55  H   UNL     1     148.134 167.566 190.891  0.00  0.00    +0.064 HD
ATOM     56  H   UNL     1     146.983 168.905 192.591  0.00  0.00    +0.032 HD
ATOM     57  H   UNL     1     148.479 169.243 193.420  0.00  0.00    +0.032 HD
ATOM     58  H   UNL     1     147.021 167.590 194.556  0.00  0.00    +0.060 HD
ENDROOT
BRANCH   1  59
ATOM     59  C   UNL     1     146.999 164.846 194.158  0.00  0.00    -0.057 C 
ATOM     60  H   UNL     1     147.819 164.122 194.087  0.00  0.00    +0.024 HD
ATOM     61  H   UNL     1     147.022 165.252 195.176  0.00  0.00    +0.024 HD
ATOM     62  H   UNL     1     146.054 164.307 194.033  0.00  0.00    +0.024 HD
ENDBRANCH   1  59
BRANCH  26  63
ATOM     63  C   UNL     1     152.743 166.465 192.440  0.00  0.00    -0.056 C 
ATOM     64  H   UNL     1     152.253 167.339 192.880  0.00  0.00    +0.024 HD
ATOM     65  H   UNL     1     152.941 165.745 193.244  0.00  0.00    +0.024 HD
ATOM     66  H   UNL     1     153.725 166.766 192.073  0.00  0.00    +0.024 HD
ENDBRANCH  26  63
BRANCH  18  67
ATOM     67  C   UNL     1     146.876 164.010 183.840  0.00  0.00    -0.043 C 
ATOM     68  H   UNL     1     145.914 164.466 183.589  0.00  0.00    +0.027 HD
ATOM     69  H   UNL     1     146.671 163.175 184.517  0.00  0.00    +0.027 HD
ATOM     70  H   UNL     1     147.314 163.584 182.930  0.00  0.00    +0.027 HD
ENDBRANCH  18  67
BRANCH   7  71
ATOM     71  C   UNL     1     141.500 167.532 187.248  0.00  0.00    -0.057 C 
ATOM     72  H   UNL     1     140.719 168.098 187.767  0.00  0.00    +0.023 HD
ATOM     73  H   UNL     1     141.702 168.012 186.287  0.00  0.00    +0.023 HD
ATOM     74  H   UNL     1     141.099 166.543 187.004  0.00  0.00    +0.023 HD
ENDBRANCH   7  71
BRANCH  31  75
ATOM     75  O   UNL     1     148.952 166.971 194.454  0.00  0.00    -0.391 OA
ATOM     76  H   UNL     1     148.775 166.985 195.408  0.00  0.00    +0.210 HD
ENDBRANCH  31  75
BRANCH  25  77
ATOM     77  C   UNL     1     153.966 165.122 189.724  0.00  0.00    +0.020 C 
ATOM     78  H   UNL     1     154.512 165.274 190.664  0.00  0.00    +0.036 HD
BRANCH  77  79
ATOM     79  C   UNL     1     153.810 163.596 189.613  0.00  0.00    -0.057 C 
ATOM     80  H   UNL     1     154.758 163.065 189.674  0.00  0.00    +0.023 HD
ATOM     81  H   UNL     1     153.321 163.321 188.672  0.00  0.00    +0.023 HD
ATOM     82  H   UNL     1     153.177 163.222 190.426  0.00  0.00    +0.023 HD
ENDBRANCH  77  79
BRANCH  77  83
ATOM     83  C   UNL     1     154.902 165.666 188.592  0.00  0.00    +0.067 C 
ATOM     84  H   UNL     1     154.825 164.967 187.746  0.00  0.00    +0.060 HD
BRANCH  83  85
ATOM     85  C   UNL     1     156.413 165.713 188.991  0.00  0.00    -0.017 C 
ATOM     86  H   UNL     1     156.898 166.563 188.514  0.00  0.00    +0.032 HD
BRANCH  85  87
ATOM     87  C   UNL     1     156.543 165.936 190.506  0.00  0.00    -0.060 C 
ATOM     88  H   UNL     1     157.514 166.374 190.750  0.00  0.00    +0.023 HD
ATOM     89  H   UNL     1     155.777 166.623 190.879  0.00  0.00    +0.023 HD
ATOM     90  H   UNL     1     156.448 164.994 191.056  0.00  0.00    +0.023 HD
ENDBRANCH  85  87
BRANCH  85  91
ATOM     91  C   UNL     1     157.226 164.460 188.589  0.00  0.00    -0.041 C 
ATOM     92  H   UNL     1     158.165 164.766 188.110  0.00  0.00    +0.027 HD
ATOM     93  H   UNL     1     156.679 163.885 187.830  0.00  0.00    +0.027 HD
BRANCH  91  94
ATOM     94  C   UNL     1     157.534 163.533 189.774  0.00  0.00    +0.007 C 
ATOM     95  H   UNL     1     158.198 164.066 190.464  0.00  0.00    +0.034 HD
ATOM     96  H   UNL     1     156.620 163.285 190.311  0.00  0.00    +0.034 HD
BRANCH  94  97
ATOM     97  C   UNL     1     158.234 162.237 189.369  0.00  0.00    +0.139 C 
ATOM     98  O   UNL     1     159.383 162.237 188.919  0.00  0.00    -0.297 OA
BRANCH  97  99
ATOM     99  C   UNL     1     157.525 160.901 189.593  0.00  0.00    +0.041 C 
ATOM    100  H   UNL     1     157.436 160.822 190.685  0.00  0.00    +0.040 HD
BRANCH  99 101
ATOM    101  C   UNL     1     158.342 159.676 189.189  0.00  0.00    -0.053 C 
ATOM    102  H   UNL     1     159.318 159.641 189.684  0.00  0.00    +0.024 HD
ATOM    103  H   UNL     1     158.510 159.661 188.108  0.00  0.00    +0.024 HD
ATOM    104  H   UNL     1     157.808 158.757 189.452  0.00  0.00    +0.024 HD
ENDBRANCH  99 101
BRANCH  99 105
ATOM    105  C   UNL     1     156.097 160.930 189.002  0.00  0.00    +0.071 C 
ATOM    106  H   UNL     1     155.682 161.945 189.075  0.00  0.00    +0.061 HD
BRANCH 105 107
ATOM    107  C   UNL     1     156.038 160.483 187.525  0.00  0.00    -0.006 C 
ATOM    108  H   UNL     1     156.951 159.947 187.253  0.00  0.00    +0.033 HD
ATOM    109  H   UNL     1     155.195 159.798 187.376  0.00  0.00    +0.033 HD
BRANCH 107 110
ATOM    110  C   UNL     1     155.915 161.641 186.564  0.00  0.00    -0.067 C 
ATOM    111  C   UNL     1     154.832 162.432 186.510  0.00  0.00    -0.005 C 
ATOM    112  H   UNL     1     156.754 161.787 185.891  0.00  0.00    +0.059 HD
ATOM    113  H   UNL     1     154.017 162.254 187.209  0.00  0.00    +0.078 HD
BRANCH 111 114
ATOM    114  N   UNL     1     154.640 163.486 185.629  0.00  0.00    -0.284 N 
ATOM    115  C   UNL     1     153.372 164.029 185.443  0.00  0.00    +0.206 C 
ATOM    116  O   UNL     1     153.076 164.956 184.697  0.00  0.00    -0.279 OA
ATOM    117  H   UNL     1     152.600 163.528 186.053  0.00  0.00    +0.126 HD
BRANCH 114 118
ATOM    118  C   UNL     1     155.745 164.063 184.879  0.00  0.00    +0.007 C 
ATOM    119  H   UNL     1     156.247 163.280 184.301  0.00  0.00    +0.043 HD
ATOM    120  H   UNL     1     155.405 164.832 184.179  0.00  0.00    +0.043 HD
ATOM    121  H   UNL     1     156.450 164.524 185.579  0.00  0.00    +0.043 HD
ENDBRANCH 114 118
ENDBRANCH 111 114
ENDBRANCH 107 110
ENDBRANCH 105 107
BRANCH 105 122
ATOM    122  O   UNL     1     155.265 160.016 189.744  0.00  0.00    -0.379 OA
BRANCH 122 123
ATOM    123  C   UNL     1     154.006 159.775 189.128  0.00  0.00    +0.037 C 
ATOM    124  H   UNL     1     153.915 158.702 188.946  0.00  0.00    +0.052 HD
ATOM    125  H   UNL     1     153.945 160.295 188.167  0.00  0.00    +0.052 HD
ATOM    126  H   UNL     1     153.184 160.088 189.778  0.00  0.00    +0.052 HD
ENDBRANCH 122 123
ENDBRANCH 105 122
ENDBRANCH  99 105
ENDBRANCH  97  99
ENDBRANCH  94  97
ENDBRANCH  91  94
ENDBRANCH  85  91
ENDBRANCH  83  85
BRANCH  83 127
ATOM    127  O   UNL     1     154.444 166.949 188.170  0.00  0.00    -0.379 OA
BRANCH 127 128
ATOM    128  C   UNL     1     154.733 167.244 186.806  0.00  0.00    +0.037 C 
ATOM    129  H   UNL     1     155.263 168.197 186.720  0.00  0.00    +0.052 HD
ATOM    130  H   UNL     1     153.782 167.322 186.273  0.00  0.00    +0.052 HD
ATOM    131  H   UNL     1     155.324 166.442 186.354  0.00  0.00    +0.052 HD
ENDBRANCH 127 128
ENDBRANCH  83 127
ENDBRANCH  77  83
ENDBRANCH  25  77
BRANCH   9 132
ATOM    132  O   UNL     1     145.711 167.488 188.428  0.00  0.00    -0.384 OA
ATOM    133  H   UNL     1     146.670 167.645 188.440  0.00  0.00    +0.210 HD
ENDBRANCH   9 132
BRANCH  29 134
ATOM    134  O   UNL     1     148.818 169.504 190.889  0.00  0.00    -0.376 OA
BRANCH 134 135
ATOM    135  C   UNL     1     147.577 169.993 190.397  0.00  0.00    +0.037 C 
ATOM    136  H   UNL     1     147.374 170.951 190.885  0.00  0.00    +0.052 HD
ATOM    137  H   UNL     1     147.621 170.167 189.318  0.00  0.00    +0.052 HD
ATOM    138  H   UNL     1     146.762 169.304 190.640  0.00  0.00    +0.052 HD
ENDBRANCH 134 135
ENDBRANCH  29 134
BRANCH   6 139
ATOM    139  O   UNL     1     141.676 165.706 189.457  0.00  0.00    -0.379 OA
BRANCH 139 140
ATOM    140  C   UNL     1     142.443 164.653 188.884  0.00  0.00    +0.037 C 
ATOM    141  H   UNL     1     142.001 163.700 189.190  0.00  0.00    +0.052 HD
ATOM    142  H   UNL     1     142.421 164.712 187.794  0.00  0.00    +0.052 HD
ATOM    143  H   UNL     1     143.478 164.686 189.236  0.00  0.00    +0.052 HD
ENDBRANCH 139 140
ENDBRANCH   6 139
BRANCH  16 144
ATOM    144  O   UNL     1     145.286 166.664 183.641  0.00  0.00    -0.379 OA
BRANCH 144 145
ATOM    145  C   UNL     1     145.021 167.013 182.289  0.00  0.00    +0.037 C 
ATOM    146  H   UNL     1     145.154 168.089 182.134  0.00  0.00    +0.052 HD
ATOM    147  H   UNL     1     143.979 166.759 182.070  0.00  0.00    +0.052 HD
ATOM    148  H   UNL     1     145.660 166.450 181.604  0.00  0.00    +0.052 HD
ENDBRANCH 144 145
ENDBRANCH  16 144
BRANCH   4 149
ATOM    149  O   UNL     1     142.582 167.149 192.505  0.00  0.00    -0.376 OA
BRANCH 149 150
ATOM    150  C   UNL     1     142.363 166.864 193.880  0.00  0.00    +0.037 C 
ATOM    151  H   UNL     1     141.660 167.578 194.321  0.00  0.00    +0.052 HD
ATOM    152  H   UNL     1     143.318 166.953 194.401  0.00  0.00    +0.052 HD
ATOM    153  H   UNL     1     141.995 165.843 194.014  0.00  0.00    +0.052 HD
ENDBRANCH 149 150
ENDBRANCH   4 149
TORSDOF 33
ENDMDL
MODEL 4
REMARK VINA RESULT:      -5.2      1.321      1.786
REMARK  Name = Sphinxolide B_conf1
REMARK  33 active torsions:
REMARK  status: ('A' for Active; 'I' for Inactive)
REMARK    1  A    between atoms: C_1  and  C_2
REMARK    2  A    between atoms: C_5  and  O_67
REMARK    3  A    between atoms: C_7  and  O_65
REMARK    4  A    between atoms: C_8  and  C_64
REMARK    5  A    between atoms: C_10  and  O_63
REMARK    6  A    between atoms: C_17  and  O_61
REMARK    7  A    between atoms: C_19  and  C_60
REMARK    8  A    between atoms: C_26  and  C_37
REMARK    9  A    between atoms: C_27  and  C_36
REMARK   10  A    between atoms: C_30  and  O_34
REMARK   11  A    between atoms: C_32  and  O_33
REMARK   12  A    between atoms: O_34  and  C_35
REMARK   13  A    between atoms: C_37  and  C_38
REMARK   14  A    between atoms: C_37  and  C_39
REMARK   15  A    between atoms: C_39  and  C_40
REMARK   16  A    between atoms: C_39  and  O_58
REMARK   17  A    between atoms: C_40  and  C_41
REMARK   18  A    between atoms: C_40  and  C_42
REMARK   19  A    between atoms: C_42  and  C_43
REMARK   20  A    between atoms: C_43  and  C_44
REMARK   21  A    between atoms: C_44  and  C_46
REMARK   22  A    between atoms: C_46  and  C_47
REMARK   23  A    between atoms: C_46  and  C_48
REMARK   24  A    between atoms: C_48  and  C_49
REMARK   25  A    between atoms: C_48  and  O_56
REMARK   26  A    between atoms: C_49  and  C_50
REMARK   27  A    between atoms: C_51  and  N_52
REMARK   28  A    between atoms: N_52  and  C_53
REMARK   29  A    between atoms: O_56  and  C_57
REMARK   30  A    between atoms: O_58  and  C_59
REMARK   31  A    between atoms: O_61  and  C_62
REMARK   32  A    between atoms: O_65  and  C_66
REMARK   33  A    between atoms: O_67  and  C_68
REMARK                            x       y       z     vdW  Elec       q    Type
REMARK                         _______ _______ _______ _____ _____    ______ ____
ROOT
ATOM      1  C   UNL     1     147.117 160.640 187.732  0.00  0.00    +0.000 C 
ATOM      2  C   UNL     1     148.629 160.681 187.841  0.00  0.00    -0.080 C 
ATOM      3  C   UNL     1     149.495 159.651 187.790  0.00  0.00    -0.059 C 
ATOM      4  C   UNL     1     151.010 159.715 187.930  0.00  0.00    +0.079 C 
ATOM      5  C   UNL     1     151.527 161.089 188.389  0.00  0.00    +0.004 C 
ATOM      6  C   UNL     1     153.053 161.190 188.540  0.00  0.00    +0.067 C 
ATOM      7  C   UNL     1     153.508 162.604 189.054  0.00  0.00    +0.022 C 
ATOM      8  C   UNL     1     153.062 163.757 188.089  0.00  0.00    +0.138 C 
ATOM      9  C   UNL     1     151.923 164.659 188.630  0.00  0.00    +0.114 C 
ATOM     10  C   UNL     1     152.466 165.588 189.688  0.00  0.00    -0.029 C 
ATOM     11  C   UNL     1     153.723 166.038 189.527  0.00  0.00    +0.024 C 
ATOM     12  C   UNL     1     154.562 165.667 188.372  0.00  0.00    +0.332 C 
ATOM     13  O   UNL     1     155.567 166.312 188.101  0.00  0.00    -0.246 OA
ATOM     14  O   UNL     1     154.171 164.587 187.651  0.00  0.00    -0.455 OA
ATOM     15  C   UNL     1     151.564 165.949 190.859  0.00  0.00    -0.002 C 
ATOM     16  C   UNL     1     152.083 166.959 191.912  0.00  0.00    +0.066 C 
ATOM     17  C   UNL     1     150.966 167.342 192.921  0.00  0.00    -0.005 C 
ATOM     18  C   UNL     1     150.317 166.190 193.674  0.00  0.00    -0.070 C 
ATOM     19  C   UNL     1     149.070 165.720 193.478  0.00  0.00    -0.062 C 
ATOM     20  C   UNL     1     148.107 166.171 192.496  0.00  0.00    -0.055 C 
ATOM     21  C   UNL     1     146.908 165.585 192.359  0.00  0.00    +0.023 C 
ATOM     22  C   UNL     1     145.964 166.054 191.325  0.00  0.00    +0.332 C 
ATOM     23  O   UNL     1     146.107 167.053 190.637  0.00  0.00    -0.246 OA
ATOM     24  O   UNL     1     144.949 165.162 191.281  0.00  0.00    -0.457 OA
ATOM     25  C   UNL     1     143.873 165.377 190.321  0.00  0.00    +0.114 C 
ATOM     26  C   UNL     1     143.827 164.110 189.408  0.00  0.00    +0.012 C 
ATOM     27  C   UNL     1     145.206 163.877 188.795  0.00  0.00    -0.079 C 
ATOM     28  C   UNL     1     145.579 163.974 187.507  0.00  0.00    -0.059 C 
ATOM     29  C   UNL     1     146.987 163.729 187.035  0.00  0.00    +0.079 C 
ATOM     30  C   UNL     1     147.102 162.607 185.985  0.00  0.00    +0.004 C 
ATOM     31  C   UNL     1     146.611 161.202 186.374  0.00  0.00    +0.064 C 
ATOM     32  H   UNL     1     146.727 161.272 188.538  0.00  0.00    +0.037 HD
ATOM     33  H   UNL     1     149.029 161.682 187.995  0.00  0.00    +0.057 HD
ATOM     34  H   UNL     1     149.108 158.646 187.642  0.00  0.00    +0.059 HD
ATOM     35  H   UNL     1     151.320 158.958 188.661  0.00  0.00    +0.064 HD
ATOM     36  H   UNL     1     151.207 161.833 187.653  0.00  0.00    +0.032 HD
ATOM     37  H   UNL     1     151.064 161.321 189.356  0.00  0.00    +0.032 HD
ATOM     38  H   UNL     1     153.531 160.998 187.569  0.00  0.00    +0.060 HD
ATOM     39  H   UNL     1     153.028 162.750 190.032  0.00  0.00    +0.036 HD
ATOM     40  H   UNL     1     152.695 163.302 187.161  0.00  0.00    +0.077 HD
ATOM     41  H   UNL     1     151.534 165.272 187.808  0.00  0.00    +0.068 HD
ATOM     42  H   UNL     1     154.204 166.727 190.213  0.00  0.00    +0.069 HD
ATOM     43  H   UNL     1     150.630 166.346 190.440  0.00  0.00    +0.034 HD
ATOM     44  H   UNL     1     151.332 165.009 191.374  0.00  0.00    +0.034 HD
ATOM     45  H   UNL     1     152.395 167.874 191.389  0.00  0.00    +0.060 HD
ATOM     46  H   UNL     1     150.209 167.919 192.378  0.00  0.00    +0.034 HD
ATOM     47  H   UNL     1     151.361 168.043 193.664  0.00  0.00    +0.034 HD
ATOM     48  H   UNL     1     148.732 164.892 194.106  0.00  0.00    +0.062 HD
ATOM     49  H   UNL     1     148.367 167.002 191.846  0.00  0.00    +0.062 HD
ATOM     50  H   UNL     1     146.591 164.751 192.975  0.00  0.00    +0.069 HD
ATOM     51  H   UNL     1     144.135 166.227 189.676  0.00  0.00    +0.074 HD
ATOM     52  H   UNL     1     143.662 163.226 190.034  0.00  0.00    +0.038 HD
ATOM     53  H   UNL     1     145.971 163.591 189.520  0.00  0.00    +0.057 HD
ATOM     54  H   UNL     1     144.868 164.249 186.734  0.00  0.00    +0.059 HD
ATOM     55  H   UNL     1     147.647 163.497 187.877  0.00  0.00    +0.064 HD
ATOM     56  H   UNL     1     148.155 162.545 185.677  0.00  0.00    +0.032 HD
ATOM     57  H   UNL     1     146.562 162.927 185.081  0.00  0.00    +0.032 HD
ATOM     58  H   UNL     1     146.931 160.524 185.572  0.00  0.00    +0.060 HD
ENDROOT
BRANCH   1  59
ATOM     59  C   UNL     1     146.525 159.244 187.997  0.00  0.00    -0.057 C 
ATOM     60  H   UNL     1     145.454 159.303 188.222  0.00  0.00    +0.024 HD
ATOM     61  H   UNL     1     146.628 158.602 187.114  0.00  0.00    +0.024 HD
ATOM     62  H   UNL     1     147.024 158.746 188.834  0.00  0.00    +0.024 HD
ENDBRANCH   1  59
BRANCH  26  63
ATOM     63  C   UNL     1     142.726 164.144 188.346  0.00  0.00    -0.056 C 
ATOM     64  H   UNL     1     141.778 163.759 188.734  0.00  0.00    +0.024 HD
ATOM     65  H   UNL     1     142.554 165.165 187.981  0.00  0.00    +0.024 HD
ATOM     66  H   UNL     1     143.001 163.565 187.464  0.00  0.00    +0.024 HD
ENDBRANCH  26  63
BRANCH  18  67
ATOM     67  C   UNL     1     151.176 165.565 194.749  0.00  0.00    -0.043 C 
ATOM     68  H   UNL     1     150.593 165.392 195.659  0.00  0.00    +0.027 HD
ATOM     69  H   UNL     1     152.024 166.200 195.023  0.00  0.00    +0.027 HD
ATOM     70  H   UNL     1     151.588 164.609 194.407  0.00  0.00    +0.027 HD
ENDBRANCH  18  67
BRANCH   7  71
ATOM     71  C   UNL     1     155.020 162.599 189.332  0.00  0.00    -0.057 C 
ATOM     72  H   UNL     1     155.487 163.536 189.011  0.00  0.00    +0.023 HD
ATOM     73  H   UNL     1     155.232 162.447 190.394  0.00  0.00    +0.023 HD
ATOM     74  H   UNL     1     155.518 161.774 188.812  0.00  0.00    +0.023 HD
ENDBRANCH   7  71
BRANCH  31  75
ATOM     75  O   UNL     1     145.178 161.206 186.337  0.00  0.00    -0.391 OA
ATOM     76  H   UNL     1     144.884 160.291 186.207  0.00  0.00    +0.210 HD
ENDBRANCH  31  75
BRANCH  25  77
ATOM     77  C   UNL     1     142.622 165.805 191.158  0.00  0.00    +0.020 C 
ATOM     78  H   UNL     1     141.755 165.426 190.600  0.00  0.00    +0.036 HD
BRANCH  77  79
ATOM     79  C   UNL     1     142.562 165.066 192.506  0.00  0.00    -0.057 C 
ATOM     80  H   UNL     1     141.823 165.481 193.188  0.00  0.00    +0.023 HD
ATOM     81  H   UNL     1     143.538 165.083 193.004  0.00  0.00    +0.023 HD
ATOM     82  H   UNL     1     142.300 164.013 192.346  0.00  0.00    +0.023 HD
ENDBRANCH  77  79
BRANCH  77  83
ATOM     83  C   UNL     1     142.367 167.337 191.357  0.00  0.00    +0.067 C 
ATOM     84  H   UNL     1     141.343 167.447 191.747  0.00  0.00    +0.060 HD
BRANCH  83  85
ATOM     85  C   UNL     1     142.424 168.164 190.031  0.00  0.00    -0.017 C 
ATOM     86  H   UNL     1     142.393 167.496 189.173  0.00  0.00    +0.032 HD
BRANCH  85  87
ATOM     87  C   UNL     1     141.180 169.061 189.925  0.00  0.00    -0.060 C 
ATOM     88  H   UNL     1     141.468 170.112 189.849  0.00  0.00    +0.023 HD
ATOM     89  H   UNL     1     140.587 168.824 189.036  0.00  0.00    +0.023 HD
ATOM     90  H   UNL     1     140.534 168.949 190.802  0.00  0.00    +0.023 HD
ENDBRANCH  85  87
BRANCH  85  91
ATOM     91  C   UNL     1     143.694 169.033 189.867  0.00  0.00    -0.041 C 
ATOM     92  H   UNL     1     144.570 168.478 190.223  0.00  0.00    +0.027 HD
ATOM     93  H   UNL     1     143.625 169.922 190.507  0.00  0.00    +0.027 HD
BRANCH  91  94
ATOM     94  C   UNL     1     143.930 169.491 188.420  0.00  0.00    +0.007 C 
ATOM     95  H   UNL     1     142.989 169.387 187.869  0.00  0.00    +0.034 HD
ATOM     96  H   UNL     1     144.220 170.541 188.396  0.00  0.00    +0.034 HD
BRANCH  94  97
ATOM     97  C   UNL     1     144.988 168.671 187.686  0.00  0.00    +0.139 C 
ATOM     98  O   UNL     1     144.902 167.443 187.589  0.00  0.00    -0.297 OA
BRANCH  97  99
ATOM     99  C   UNL     1     146.146 169.390 186.992  0.00  0.00    +0.041 C 
ATOM    100  H   UNL     1     145.877 170.453 187.051  0.00  0.00    +0.040 HD
BRANCH  99 101
ATOM    101  C   UNL     1     146.259 169.109 185.496  0.00  0.00    -0.053 C 
ATOM    102  H   UNL     1     146.449 170.016 184.912  0.00  0.00    +0.024 HD
ATOM    103  H   UNL     1     145.342 168.649 185.117  0.00  0.00    +0.024 HD
ATOM    104  H   UNL     1     147.082 168.415 185.298  0.00  0.00    +0.024 HD
ENDBRANCH  99 101
BRANCH  99 105
ATOM    105  C   UNL     1     147.464 169.191 187.773  0.00  0.00    +0.071 C 
ATOM    106  H   UNL     1     148.191 169.962 187.485  0.00  0.00    +0.061 HD
BRANCH 105 107
ATOM    107  C   UNL     1     147.279 169.242 189.306  0.00  0.00    -0.006 C 
ATOM    108  H   UNL     1     146.321 168.800 189.588  0.00  0.00    +0.033 HD
ATOM    109  H   UNL     1     148.070 168.662 189.797  0.00  0.00    +0.033 HD
BRANCH 107 110
ATOM    110  C   UNL     1     147.283 170.650 189.852  0.00  0.00    -0.067 C 
ATOM    111  C   UNL     1     148.053 171.030 190.885  0.00  0.00    -0.005 C 
ATOM    112  H   UNL     1     146.600 171.344 189.373  0.00  0.00    +0.059 HD
ATOM    113  H   UNL     1     148.728 170.302 191.331  0.00  0.00    +0.078 HD
BRANCH 111 114
ATOM    114  N   UNL     1     148.078 172.292 191.457  0.00  0.00    -0.284 N 
ATOM    115  C   UNL     1     147.207 172.616 192.494  0.00  0.00    +0.206 C 
ATOM    116  O   UNL     1     147.133 173.691 193.077  0.00  0.00    -0.279 OA
ATOM    117  H   UNL     1     146.541 171.779 192.768  0.00  0.00    +0.126 HD
BRANCH 114 118
ATOM    118  C   UNL     1     149.009 173.316 191.006  0.00  0.00    +0.007 C 
ATOM    119  H   UNL     1     149.222 174.008 191.827  0.00  0.00    +0.043 HD
ATOM    120  H   UNL     1     149.957 172.885 190.672  0.00  0.00    +0.043 HD
ATOM    121  H   UNL     1     148.563 173.858 190.164  0.00  0.00    +0.043 HD
ENDBRANCH 114 118
ENDBRANCH 111 114
ENDBRANCH 107 110
ENDBRANCH 105 107
BRANCH 105 122
ATOM    122  O   UNL     1     147.998 167.887 187.466  0.00  0.00    -0.379 OA
BRANCH 122 123
ATOM    123  C   UNL     1     148.740 167.316 188.537  0.00  0.00    +0.037 C 
ATOM    124  H   UNL     1     148.357 166.309 188.718  0.00  0.00    +0.052 HD
ATOM    125  H   UNL     1     148.608 167.905 189.449  0.00  0.00    +0.052 HD
ATOM    126  H   UNL     1     149.801 167.244 188.285  0.00  0.00    +0.052 HD
ENDBRANCH 122 123
ENDBRANCH 105 122
ENDBRANCH  99 105
ENDBRANCH  97  99
ENDBRANCH  94  97
ENDBRANCH  91  94
ENDBRANCH  85  91
ENDBRANCH  83  85
BRANCH  83 127
ATOM    127  O   UNL     1     143.283 167.852 192.321  0.00  0.00    -0.379 OA
BRANCH 127 128
ATOM    128  C   UNL     1     142.707 168.066 193.607  0.00  0.00    +0.037 C 
ATOM    129  H   UNL     1     141.847 168.738 193.538  0.00  0.00    +0.052 HD
ATOM    130  H   UNL     1     143.467 168.532 194.239  0.00  0.00    +0.052 HD
ATOM    131  H   UNL     1     142.409 167.116 194.059  0.00  0.00    +0.052 HD
ENDBRANCH 127 128
ENDBRANCH  83 127
ENDBRANCH  77  83
ENDBRANCH  25  77
BRANCH   9 132
ATOM    132  O   UNL     1     150.845 163.884 189.131  0.00  0.00    -0.384 OA
ATOM    133  H   UNL     1     150.048 164.141 188.637  0.00  0.00    +0.210 HD
ENDBRANCH   9 132
BRANCH  29 134
ATOM    134  O   UNL     1     147.487 164.921 186.405  0.00  0.00    -0.376 OA
BRANCH 134 135
ATOM    135  C   UNL     1     146.705 165.365 185.304  0.00  0.00    +0.037 C 
ATOM    136  H   UNL     1     146.733 164.589 184.534  0.00  0.00    +0.052 HD
ATOM    137  H   UNL     1     145.661 165.513 185.596  0.00  0.00    +0.052 HD
ATOM    138  H   UNL     1     147.117 166.286 184.878  0.00  0.00    +0.052 HD
ENDBRANCH 134 135
ENDBRANCH  29 134
BRANCH   6 139
ATOM    139  O   UNL     1     153.452 160.199 189.506  0.00  0.00    -0.379 OA
BRANCH 139 140
ATOM    140  C   UNL     1     154.330 159.219 188.963  0.00  0.00    +0.037 C 
ATOM    141  H   UNL     1     155.330 159.657 188.890  0.00  0.00    +0.052 HD
ATOM    142  H   UNL     1     154.381 158.346 189.617  0.00  0.00    +0.052 HD
ATOM    143  H   UNL     1     154.008 158.916 187.963  0.00  0.00    +0.052 HD
ENDBRANCH 139 140
ENDBRANCH   6 139
BRANCH  16 144
ATOM    144  O   UNL     1     153.222 166.390 192.572  0.00  0.00    -0.379 OA
BRANCH 144 145
ATOM    145  C   UNL     1     153.957 167.316 193.361  0.00  0.00    +0.037 C 
ATOM    146  H   UNL     1     154.965 166.939 193.563  0.00  0.00    +0.052 HD
ATOM    147  H   UNL     1     153.436 167.437 194.317  0.00  0.00    +0.052 HD
ATOM    148  H   UNL     1     154.008 168.294 192.876  0.00  0.00    +0.052 HD
ENDBRANCH 144 145
ENDBRANCH  16 144
BRANCH   4 149
ATOM    149  O   UNL     1     151.594 159.433 186.650  0.00  0.00    -0.376 OA
BRANCH 149 150
ATOM    150  C   UNL     1     151.810 158.048 186.415  0.00  0.00    +0.037 C 
ATOM    151  H   UNL     1     152.875 157.802 186.471  0.00  0.00    +0.052 HD
ATOM    152  H   UNL     1     151.454 157.815 185.410  0.00  0.00    +0.052 HD
ATOM    153  H   UNL     1     151.246 157.438 187.126  0.00  0.00    +0.052 HD
ENDBRANCH 149 150
ENDBRANCH   4 149
TORSDOF 33
ENDMDL
MODEL 5
REMARK VINA RESULT:      -5.2      2.293      4.065
REMARK  Name = Sphinxolide B_conf1
REMARK  33 active torsions:
REMARK  status: ('A' for Active; 'I' for Inactive)
REMARK    1  A    between atoms: C_1  and  C_2
REMARK    2  A    between atoms: C_5  and  O_67
REMARK    3  A    between atoms: C_7  and  O_65
REMARK    4  A    between atoms: C_8  and  C_64
REMARK    5  A    between atoms: C_10  and  O_63
REMARK    6  A    between atoms: C_17  and  O_61
REMARK    7  A    between atoms: C_19  and  C_60
REMARK    8  A    between atoms: C_26  and  C_37
REMARK    9  A    between atoms: C_27  and  C_36
REMARK   10  A    between atoms: C_30  and  O_34
REMARK   11  A    between atoms: C_32  and  O_33
REMARK   12  A    between atoms: O_34  and  C_35
REMARK   13  A    between atoms: C_37  and  C_38
REMARK   14  A    between atoms: C_37  and  C_39
REMARK   15  A    between atoms: C_39  and  C_40
REMARK   16  A    between atoms: C_39  and  O_58
REMARK   17  A    between atoms: C_40  and  C_41
REMARK   18  A    between atoms: C_40  and  C_42
REMARK   19  A    between atoms: C_42  and  C_43
REMARK   20  A    between atoms: C_43  and  C_44
REMARK   21  A    between atoms: C_44  and  C_46
REMARK   22  A    between atoms: C_46  and  C_47
REMARK   23  A    between atoms: C_46  and  C_48
REMARK   24  A    between atoms: C_48  and  C_49
REMARK   25  A    between atoms: C_48  and  O_56
REMARK   26  A    between atoms: C_49  and  C_50
REMARK   27  A    between atoms: C_51  and  N_52
REMARK   28  A    between atoms: N_52  and  C_53
REMARK   29  A    between atoms: O_56  and  C_57
REMARK   30  A    between atoms: O_58  and  C_59
REMARK   31  A    between atoms: O_61  and  C_62
REMARK   32  A    between atoms: O_65  and  C_66
REMARK   33  A    between atoms: O_67  and  C_68
REMARK                            x       y       z     vdW  Elec       q    Type
REMARK                         _______ _______ _______ _____ _____    ______ ____
ROOT
ATOM      1  C   UNL     1     146.845 159.835 189.243  0.00  0.00    +0.000 C 
ATOM      2  C   UNL     1     148.227 159.505 188.714  0.00  0.00    -0.080 C 
ATOM      3  C   UNL     1     148.942 158.380 188.900  0.00  0.00    -0.059 C 
ATOM      4  C   UNL     1     150.343 158.084 188.381  0.00  0.00    +0.079 C 
ATOM      5  C   UNL     1     151.045 159.310 187.774  0.00  0.00    +0.004 C 
ATOM      6  C   UNL     1     152.462 159.047 187.238  0.00  0.00    +0.067 C 
ATOM      7  C   UNL     1     153.136 160.350 186.675  0.00  0.00    +0.022 C 
ATOM      8  C   UNL     1     152.310 160.985 185.503  0.00  0.00    +0.138 C 
ATOM      9  C   UNL     1     151.584 162.309 185.858  0.00  0.00    +0.114 C 
ATOM     10  C   UNL     1     152.585 163.437 185.927  0.00  0.00    -0.029 C 
ATOM     11  C   UNL     1     153.624 163.394 185.075  0.00  0.00    +0.024 C 
ATOM     12  C   UNL     1     153.804 162.309 184.092  0.00  0.00    +0.332 C 
ATOM     13  O   UNL     1     154.573 162.448 183.149  0.00  0.00    -0.246 OA
ATOM     14  O   UNL     1     153.095 161.172 184.295  0.00  0.00    -0.455 OA
ATOM     15  C   UNL     1     152.356 164.538 186.953  0.00  0.00    -0.002 C 
ATOM     16  C   UNL     1     153.334 165.737 186.985  0.00  0.00    +0.066 C 
ATOM     17  C   UNL     1     152.839 166.839 187.961  0.00  0.00    -0.005 C 
ATOM     18  C   UNL     1     152.602 166.405 189.400  0.00  0.00    -0.070 C 
ATOM     19  C   UNL     1     151.402 166.262 189.995  0.00  0.00    -0.062 C 
ATOM     20  C   UNL     1     150.098 166.442 189.393  0.00  0.00    -0.055 C 
ATOM     21  C   UNL     1     148.965 166.215 190.075  0.00  0.00    +0.023 C 
ATOM     22  C   UNL     1     147.654 166.382 189.419  0.00  0.00    +0.332 C 
ATOM     23  O   UNL     1     147.474 166.856 188.308  0.00  0.00    -0.246 OA
ATOM     24  O   UNL     1     146.721 165.891 190.265  0.00  0.00    -0.457 OA
ATOM     25  C   UNL     1     145.323 165.915 189.852  0.00  0.00    +0.114 C 
ATOM     26  C   UNL     1     144.821 164.436 189.880  0.00  0.00    +0.012 C 
ATOM     27  C   UNL     1     145.738 163.574 189.016  0.00  0.00    -0.079 C 
ATOM     28  C   UNL     1     145.456 162.948 187.860  0.00  0.00    -0.059 C 
ATOM     29  C   UNL     1     146.465 162.134 187.095  0.00  0.00    +0.079 C 
ATOM     30  C   UNL     1     146.043 160.668 186.879  0.00  0.00    +0.004 C 
ATOM     31  C   UNL     1     145.766 159.806 188.124  0.00  0.00    +0.064 C 
ATOM     32  H   UNL     1     146.898 160.851 189.650  0.00  0.00    +0.037 HD
ATOM     33  H   UNL     1     148.673 160.307 188.129  0.00  0.00    +0.057 HD
ATOM     34  H   UNL     1     148.510 157.573 189.487  0.00  0.00    +0.059 HD
ATOM     35  H   UNL     1     150.947 157.707 189.216  0.00  0.00    +0.064 HD
ATOM     36  H   UNL     1     150.430 159.676 186.946  0.00  0.00    +0.032 HD
ATOM     37  H   UNL     1     151.103 160.086 188.547  0.00  0.00    +0.032 HD
ATOM     38  H   UNL     1     152.416 158.298 186.435  0.00  0.00    +0.060 HD
ATOM     39  H   UNL     1     153.182 161.064 187.509  0.00  0.00    +0.036 HD
ATOM     40  H   UNL     1     151.536 160.268 185.203  0.00  0.00    +0.077 HD
ATOM     41  H   UNL     1     150.865 162.544 185.064  0.00  0.00    +0.068 HD
ATOM     42  H   UNL     1     154.387 164.162 185.024  0.00  0.00    +0.069 HD
ATOM     43  H   UNL     1     151.343 164.930 186.789  0.00  0.00    +0.034 HD
ATOM     44  H   UNL     1     152.376 164.055 187.938  0.00  0.00    +0.034 HD
ATOM     45  H   UNL     1     153.380 166.173 185.977  0.00  0.00    +0.060 HD
ATOM     46  H   UNL     1     151.928 167.276 187.537  0.00  0.00    +0.034 HD
ATOM     47  H   UNL     1     153.555 167.669 187.979  0.00  0.00    +0.034 HD
ATOM     48  H   UNL     1     151.385 165.955 191.043  0.00  0.00    +0.062 HD
ATOM     49  H   UNL     1     150.036 166.763 188.357  0.00  0.00    +0.062 HD
ATOM     50  H   UNL     1     148.962 165.892 191.110  0.00  0.00    +0.069 HD
ATOM     51  H   UNL     1     145.264 166.254 188.808  0.00  0.00    +0.074 HD
ATOM     52  H   UNL     1     144.955 164.035 190.891  0.00  0.00    +0.038 HD
ATOM     53  H   UNL     1     146.749 163.465 189.413  0.00  0.00    +0.057 HD
ATOM     54  H   UNL     1     144.469 163.011 187.412  0.00  0.00    +0.059 HD
ATOM     55  H   UNL     1     147.441 162.154 187.591  0.00  0.00    +0.064 HD
ATOM     56  H   UNL     1     146.821 160.182 186.276  0.00  0.00    +0.032 HD
ATOM     57  H   UNL     1     145.145 160.659 186.243  0.00  0.00    +0.032 HD
ATOM     58  H   UNL     1     145.651 158.773 187.772  0.00  0.00    +0.060 HD
ENDROOT
BRANCH   1  59
ATOM     59  C   UNL     1     146.420 158.951 190.429  0.00  0.00    -0.057 C 
ATOM     60  H   UNL     1     147.287 158.639 191.024  0.00  0.00    +0.024 HD
ATOM     61  H   UNL     1     145.753 159.498 191.105  0.00  0.00    +0.024 HD
ATOM     62  H   UNL     1     145.894 158.050 190.094  0.00  0.00    +0.024 HD
ENDBRANCH   1  59
BRANCH  26  63
ATOM     63  C   UNL     1     143.349 164.268 189.500  0.00  0.00    -0.056 C 
ATOM     64  H   UNL     1     143.227 164.087 188.427  0.00  0.00    +0.024 HD
ATOM     65  H   UNL     1     142.890 163.430 190.040  0.00  0.00    +0.024 HD
ATOM     66  H   UNL     1     142.761 165.145 189.773  0.00  0.00    +0.024 HD
ENDBRANCH  26  63
BRANCH  18  67
ATOM     67  C   UNL     1     153.855 166.151 190.206  0.00  0.00    -0.043 C 
ATOM     68  H   UNL     1     153.607 165.923 191.247  0.00  0.00    +0.027 HD
ATOM     69  H   UNL     1     154.525 167.016 190.214  0.00  0.00    +0.027 HD
ATOM     70  H   UNL     1     154.420 165.312 189.785  0.00  0.00    +0.027 HD
ENDBRANCH  18  67
BRANCH   7  71
ATOM     71  C   UNL     1     154.598 160.062 186.297  0.00  0.00    -0.057 C 
ATOM     72  H   UNL     1     155.015 160.863 185.677  0.00  0.00    +0.023 HD
ATOM     73  H   UNL     1     155.226 159.941 187.184  0.00  0.00    +0.023 HD
ATOM     74  H   UNL     1     154.688 159.121 185.743  0.00  0.00    +0.023 HD
ENDBRANCH   7  71
BRANCH  31  75
ATOM     75  O   UNL     1     144.488 160.186 188.651  0.00  0.00    -0.391 OA
ATOM     76  H   UNL     1     143.992 159.373 188.837  0.00  0.00    +0.210 HD
ENDBRANCH  31  75
BRANCH  25  77
ATOM     77  C   UNL     1     144.629 167.012 190.729  0.00  0.00    +0.020 C 
ATOM     78  H   UNL     1     143.648 166.596 190.992  0.00  0.00    +0.036 HD
BRANCH  77  79
ATOM     79  C   UNL     1     145.343 167.192 192.079  0.00  0.00    -0.057 C 
ATOM     80  H   UNL     1     144.763 167.773 192.794  0.00  0.00    +0.023 HD
ATOM     81  H   UNL     1     146.314 167.682 191.945  0.00  0.00    +0.023 HD
ATOM     82  H   UNL     1     145.536 166.214 192.537  0.00  0.00    +0.023 HD
ENDBRANCH  77  79
BRANCH  77  83
ATOM     83  C   UNL     1     144.341 168.401 190.066  0.00  0.00    +0.067 C 
ATOM     84  H   UNL     1     143.793 168.206 189.131  0.00  0.00    +0.060 HD
BRANCH  83  85
ATOM     85  C   UNL     1     145.631 169.189 189.664  0.00  0.00    -0.017 C 
ATOM     86  H   UNL     1     146.512 168.574 189.836  0.00  0.00    +0.032 HD
BRANCH  85  87
ATOM     87  C   UNL     1     145.605 169.494 188.158  0.00  0.00    -0.060 C 
ATOM     88  H   UNL     1     146.614 169.468 187.742  0.00  0.00    +0.023 HD
ATOM     89  H   UNL     1     145.010 168.758 187.609  0.00  0.00    +0.023 HD
ATOM     90  H   UNL     1     145.182 170.485 187.961  0.00  0.00    +0.023 HD
ENDBRANCH  85  87
BRANCH  85  91
ATOM     91  C   UNL     1     145.853 170.505 190.447  0.00  0.00    -0.041 C 
ATOM     92  H   UNL     1     146.248 170.280 191.445  0.00  0.00    +0.027 HD
ATOM     93  H   UNL     1     144.892 171.008 190.615  0.00  0.00    +0.027 HD
BRANCH  91  94
ATOM     94  C   UNL     1     146.796 171.483 189.731  0.00  0.00    +0.007 C 
ATOM     95  H   UNL     1     147.348 170.928 188.965  0.00  0.00    +0.034 HD
ATOM     96  H   UNL     1     146.226 172.266 189.234  0.00  0.00    +0.034 HD
BRANCH  94  97
ATOM     97  C   UNL     1     147.820 172.133 190.659  0.00  0.00    +0.139 C 
ATOM     98  O   UNL     1     148.600 173.000 190.255  0.00  0.00    -0.297 OA
BRANCH  97  99
ATOM     99  C   UNL     1     147.835 171.754 192.141  0.00  0.00    +0.041 C 
ATOM    100  H   UNL     1     146.888 171.216 192.291  0.00  0.00    +0.040 HD
BRANCH  99 101
ATOM    101  C   UNL     1     147.753 172.941 193.098  0.00  0.00    -0.053 C 
ATOM    102  H   UNL     1     146.824 173.509 192.983  0.00  0.00    +0.024 HD
ATOM    103  H   UNL     1     148.591 173.626 192.939  0.00  0.00    +0.024 HD
ATOM    104  H   UNL     1     147.800 172.599 194.137  0.00  0.00    +0.024 HD
ENDBRANCH  99 101
BRANCH  99 105
ATOM    105  C   UNL     1     148.990 170.775 192.447  0.00  0.00    +0.071 C 
ATOM    106  H   UNL     1     149.114 170.669 193.533  0.00  0.00    +0.061 HD
BRANCH 105 107
ATOM    107  C   UNL     1     148.777 169.371 191.841  0.00  0.00    -0.006 C 
ATOM    108  H   UNL     1     147.935 169.381 191.144  0.00  0.00    +0.033 HD
ATOM    109  H   UNL     1     149.668 169.068 191.278  0.00  0.00    +0.033 HD
BRANCH 107 110
ATOM    110  C   UNL     1     148.465 168.321 192.881  0.00  0.00    -0.067 C 
ATOM    111  C   UNL     1     149.353 167.392 193.268  0.00  0.00    -0.005 C 
ATOM    112  H   UNL     1     147.459 168.345 193.288  0.00  0.00    +0.059 HD
ATOM    113  H   UNL     1     150.353 167.410 192.839  0.00  0.00    +0.078 HD
BRANCH 111 114
ATOM    114  N   UNL     1     149.120 166.381 194.188  0.00  0.00    -0.284 N 
ATOM    115  C   UNL     1     147.893 166.285 194.837  0.00  0.00    +0.206 C 
ATOM    116  O   UNL     1     147.568 165.442 195.666  0.00  0.00    -0.279 OA
ATOM    117  H   UNL     1     147.187 167.078 194.534  0.00  0.00    +0.126 HD
BRANCH 114 118
ATOM    118  C   UNL     1     150.137 165.388 194.503  0.00  0.00    +0.007 C 
ATOM    119  H   UNL     1     149.668 164.519 194.977  0.00  0.00    +0.043 HD
ATOM    120  H   UNL     1     150.660 165.043 193.608  0.00  0.00    +0.043 HD
ATOM    121  H   UNL     1     150.873 165.834 195.181  0.00  0.00    +0.043 HD
ENDBRANCH 114 118
ENDBRANCH 111 114
ENDBRANCH 107 110
ENDBRANCH 105 107
BRANCH 105 122
ATOM    122  O   UNL     1     150.207 171.293 191.872  0.00  0.00    -0.379 OA
BRANCH 122 123
ATOM    123  C   UNL     1     151.234 170.316 191.755  0.00  0.00    +0.037 C 
ATOM    124  H   UNL     1     150.889 169.399 192.240  0.00  0.00    +0.052 HD
ATOM    125  H   UNL     1     152.142 170.654 192.262  0.00  0.00    +0.052 HD
ATOM    126  H   UNL     1     151.449 170.094 190.706  0.00  0.00    +0.052 HD
ENDBRANCH 122 123
ENDBRANCH 105 122
ENDBRANCH  99 105
ENDBRANCH  97  99
ENDBRANCH  94  97
ENDBRANCH  91  94
ENDBRANCH  85  91
ENDBRANCH  83  85
BRANCH  83 127
ATOM    127  O   UNL     1     143.514 169.179 190.929  0.00  0.00    -0.379 OA
BRANCH 127 128
ATOM    128  C   UNL     1     142.138 168.812 190.893  0.00  0.00    +0.037 C 
ATOM    129  H   UNL     1     141.549 169.456 191.553  0.00  0.00    +0.052 HD
ATOM    130  H   UNL     1     142.058 167.781 191.246  0.00  0.00    +0.052 HD
ATOM    131  H   UNL     1     141.751 168.864 189.871  0.00  0.00    +0.052 HD
ENDBRANCH 127 128
ENDBRANCH  83 127
ENDBRANCH  77  83
ENDBRANCH  25  77
BRANCH   9 132
ATOM    132  O   UNL     1     150.857 162.190 187.070  0.00  0.00    -0.384 OA
ATOM    133  H   UNL     1     151.404 161.676 187.688  0.00  0.00    +0.210 HD
ENDBRANCH   9 132
BRANCH  29 134
ATOM    134  O   UNL     1     146.631 162.701 185.783  0.00  0.00    -0.376 OA
BRANCH 134 135
ATOM    135  C   UNL     1     147.786 163.520 185.651  0.00  0.00    +0.037 C 
ATOM    136  H   UNL     1     148.578 163.092 186.272  0.00  0.00    +0.052 HD
ATOM    137  H   UNL     1     148.141 163.538 184.617  0.00  0.00    +0.052 HD
ATOM    138  H   UNL     1     147.585 164.538 186.003  0.00  0.00    +0.052 HD
ENDBRANCH 134 135
ENDBRANCH  29 134
BRANCH   6 139
ATOM    139  O   UNL     1     153.250 158.560 188.340  0.00  0.00    -0.379 OA
BRANCH 139 140
ATOM    140  C   UNL     1     153.752 157.246 188.124  0.00  0.00    +0.037 C 
ATOM    141  H   UNL     1     153.169 156.782 187.323  0.00  0.00    +0.052 HD
ATOM    142  H   UNL     1     154.799 157.282 187.816  0.00  0.00    +0.052 HD
ATOM    143  H   UNL     1     153.652 156.636 189.027  0.00  0.00    +0.052 HD
ENDBRANCH 139 140
ENDBRANCH   6 139
BRANCH  16 144
ATOM    144  O   UNL     1     154.638 165.258 187.343  0.00  0.00    -0.379 OA
BRANCH 144 145
ATOM    145  C   UNL     1     155.703 166.086 186.896  0.00  0.00    +0.037 C 
ATOM    146  H   UNL     1     156.484 166.159 187.660  0.00  0.00    +0.052 HD
ATOM    147  H   UNL     1     155.302 167.089 186.716  0.00  0.00    +0.052 HD
ATOM    148  H   UNL     1     156.124 165.716 185.957  0.00  0.00    +0.052 HD
ENDBRANCH 144 145
ENDBRANCH  16 144
BRANCH   4 149
ATOM    149  O   UNL     1     150.242 157.085 187.355  0.00  0.00    -0.376 OA
BRANCH 149 150
ATOM    150  C   UNL     1     150.291 155.753 187.850  0.00  0.00    +0.037 C 
ATOM    151  H   UNL     1     150.505 155.044 187.045  0.00  0.00    +0.052 HD
ATOM    152  H   UNL     1     149.313 155.513 188.271  0.00  0.00    +0.052 HD
ATOM    153  H   UNL     1     151.037 155.658 188.643  0.00  0.00    +0.052 HD
ENDBRANCH 149 150
ENDBRANCH   4 149
TORSDOF 33
ENDMDL
MODEL 6
REMARK VINA RESULT:      -5.1      3.795     11.697
REMARK  Name = Sphinxolide B_conf1
REMARK  33 active torsions:
REMARK  status: ('A' for Active; 'I' for Inactive)
REMARK    1  A    between atoms: C_1  and  C_2
REMARK    2  A    between atoms: C_5  and  O_67
REMARK    3  A    between atoms: C_7  and  O_65
REMARK    4  A    between atoms: C_8  and  C_64
REMARK    5  A    between atoms: C_10  and  O_63
REMARK    6  A    between atoms: C_17  and  O_61
REMARK    7  A    between atoms: C_19  and  C_60
REMARK    8  A    between atoms: C_26  and  C_37
REMARK    9  A    between atoms: C_27  and  C_36
REMARK   10  A    between atoms: C_30  and  O_34
REMARK   11  A    between atoms: C_32  and  O_33
REMARK   12  A    between atoms: O_34  and  C_35
REMARK   13  A    between atoms: C_37  and  C_38
REMARK   14  A    between atoms: C_37  and  C_39
REMARK   15  A    between atoms: C_39  and  C_40
REMARK   16  A    between atoms: C_39  and  O_58
REMARK   17  A    between atoms: C_40  and  C_41
REMARK   18  A    between atoms: C_40  and  C_42
REMARK   19  A    between atoms: C_42  and  C_43
REMARK   20  A    between atoms: C_43  and  C_44
REMARK   21  A    between atoms: C_44  and  C_46
REMARK   22  A    between atoms: C_46  and  C_47
REMARK   23  A    between atoms: C_46  and  C_48
REMARK   24  A    between atoms: C_48  and  C_49
REMARK   25  A    between atoms: C_48  and  O_56
REMARK   26  A    between atoms: C_49  and  C_50
REMARK   27  A    between atoms: C_51  and  N_52
REMARK   28  A    between atoms: N_52  and  C_53
REMARK   29  A    between atoms: O_56  and  C_57
REMARK   30  A    between atoms: O_58  and  C_59
REMARK   31  A    between atoms: O_61  and  C_62
REMARK   32  A    between atoms: O_65  and  C_66
REMARK   33  A    between atoms: O_67  and  C_68
REMARK                            x       y       z     vdW  Elec       q    Type
REMARK                         _______ _______ _______ _____ _____    ______ ____
ROOT
ATOM      1  C   UNL     1     139.576 171.878 189.719  0.00  0.00    +0.000 C 
ATOM      2  C   UNL     1     139.832 172.876 188.606  0.00  0.00    -0.080 C 
ATOM      3  C   UNL     1     138.929 173.569 187.887  0.00  0.00    -0.059 C 
ATOM      4  C   UNL     1     139.210 174.547 186.754  0.00  0.00    +0.079 C 
ATOM      5  C   UNL     1     140.675 174.539 186.285  0.00  0.00    +0.004 C 
ATOM      6  C   UNL     1     140.996 175.516 185.143  0.00  0.00    +0.067 C 
ATOM      7  C   UNL     1     142.496 175.424 184.684  0.00  0.00    +0.022 C 
ATOM      8  C   UNL     1     143.493 175.738 185.853  0.00  0.00    +0.138 C 
ATOM      9  C   UNL     1     144.273 174.511 186.394  0.00  0.00    +0.114 C 
ATOM     10  C   UNL     1     145.353 174.120 185.415  0.00  0.00    -0.029 C 
ATOM     11  C   UNL     1     145.955 175.110 184.733  0.00  0.00    +0.024 C 
ATOM     12  C   UNL     1     145.606 176.531 184.915  0.00  0.00    +0.332 C 
ATOM     13  O   UNL     1     146.358 177.411 184.514  0.00  0.00    -0.246 OA
ATOM     14  O   UNL     1     144.428 176.801 185.527  0.00  0.00    -0.455 OA
ATOM     15  C   UNL     1     145.683 172.642 185.262  0.00  0.00    -0.002 C 
ATOM     16  C   UNL     1     146.838 172.234 184.316  0.00  0.00    +0.066 C 
ATOM     17  C   UNL     1     147.147 170.716 184.430  0.00  0.00    -0.005 C 
ATOM     18  C   UNL     1     145.984 169.771 184.165  0.00  0.00    -0.070 C 
ATOM     19  C   UNL     1     145.334 169.039 185.091  0.00  0.00    -0.062 C 
ATOM     20  C   UNL     1     145.566 169.024 186.519  0.00  0.00    -0.055 C 
ATOM     21  C   UNL     1     144.813 168.291 187.352  0.00  0.00    +0.023 C 
ATOM     22  C   UNL     1     145.061 168.325 188.806  0.00  0.00    +0.332 C 
ATOM     23  O   UNL     1     146.009 168.870 189.350  0.00  0.00    -0.246 OA
ATOM     24  O   UNL     1     144.039 167.668 189.399  0.00  0.00    -0.457 OA
ATOM     25  C   UNL     1     144.024 167.567 190.854  0.00  0.00    +0.114 C 
ATOM     26  C   UNL     1     142.692 168.224 191.336  0.00  0.00    +0.012 C 
ATOM     27  C   UNL     1     142.599 169.645 190.783  0.00  0.00    -0.079 C 
ATOM     28  C   UNL     1     142.638 170.809 191.454  0.00  0.00    -0.059 C 
ATOM     29  C   UNL     1     142.549 172.153 190.780  0.00  0.00    +0.079 C 
ATOM     30  C   UNL     1     141.371 173.015 191.271  0.00  0.00    +0.004 C 
ATOM     31  C   UNL     1     139.949 172.448 191.116  0.00  0.00    +0.064 C 
ATOM     32  H   UNL     1     140.213 171.010 189.515  0.00  0.00    +0.037 HD
ATOM     33  H   UNL     1     140.887 173.014 188.377  0.00  0.00    +0.057 HD
ATOM     34  H   UNL     1     137.872 173.438 188.103  0.00  0.00    +0.059 HD
ATOM     35  H   UNL     1     138.566 174.286 185.905  0.00  0.00    +0.064 HD
ATOM     36  H   UNL     1     141.305 174.798 187.141  0.00  0.00    +0.032 HD
ATOM     37  H   UNL     1     140.921 173.522 185.955  0.00  0.00    +0.032 HD
ATOM     38  H   UNL     1     140.791 176.544 185.471  0.00  0.00    +0.060 HD
ATOM     39  H   UNL     1     142.656 174.390 184.344  0.00  0.00    +0.036 HD
ATOM     40  H   UNL     1     142.917 176.145 186.693  0.00  0.00    +0.077 HD
ATOM     41  H   UNL     1     144.757 174.787 187.339  0.00  0.00    +0.068 HD
ATOM     42  H   UNL     1     146.757 174.943 184.022  0.00  0.00    +0.069 HD
ATOM     43  H   UNL     1     145.912 172.255 186.264  0.00  0.00    +0.034 HD
ATOM     44  H   UNL     1     144.766 172.153 184.912  0.00  0.00    +0.034 HD
ATOM     45  H   UNL     1     147.740 172.786 184.613  0.00  0.00    +0.060 HD
ATOM     46  H   UNL     1     147.569 170.536 185.425  0.00  0.00    +0.034 HD
ATOM     47  H   UNL     1     147.955 170.448 183.740  0.00  0.00    +0.034 HD
ATOM     48  H   UNL     1     144.523 168.391 184.750  0.00  0.00    +0.062 HD
ATOM     49  H   UNL     1     146.368 169.633 186.929  0.00  0.00    +0.062 HD
ATOM     50  H   UNL     1     143.998 167.666 187.005  0.00  0.00    +0.069 HD
ATOM     51  H   UNL     1     144.846 168.172 191.262  0.00  0.00    +0.074 HD
ATOM     52  H   UNL     1     141.849 167.702 190.869  0.00  0.00    +0.038 HD
ATOM     53  H   UNL     1     142.481 169.693 189.699  0.00  0.00    +0.057 HD
ATOM     54  H   UNL     1     142.749 170.834 192.534  0.00  0.00    +0.059 HD
ATOM     55  H   UNL     1     142.480 172.041 189.693  0.00  0.00    +0.064 HD
ATOM     56  H   UNL     1     141.427 173.982 190.754  0.00  0.00    +0.032 HD
ATOM     57  H   UNL     1     141.538 173.252 192.333  0.00  0.00    +0.032 HD
ATOM     58  H   UNL     1     139.257 173.265 191.359  0.00  0.00    +0.060 HD
ENDROOT
BRANCH   1  59
ATOM     59  C   UNL     1     138.139 171.326 189.723  0.00  0.00    -0.057 C 
ATOM     60  H   UNL     1     137.452 172.010 190.235  0.00  0.00    +0.024 HD
ATOM     61  H   UNL     1     137.763 171.207 188.700  0.00  0.00    +0.024 HD
ATOM     62  H   UNL     1     138.083 170.351 190.217  0.00  0.00    +0.024 HD
ENDBRANCH   1  59
BRANCH  26  63
ATOM     63  C   UNL     1     142.487 168.184 192.851  0.00  0.00    -0.056 C 
ATOM     64  H   UNL     1     141.915 167.303 193.158  0.00  0.00    +0.024 HD
ATOM     65  H   UNL     1     143.446 168.169 193.384  0.00  0.00    +0.024 HD
ATOM     66  H   UNL     1     141.971 169.075 193.210  0.00  0.00    +0.024 HD
ENDBRANCH  26  63
BRANCH  18  67
ATOM     67  C   UNL     1     145.573 169.653 182.716  0.00  0.00    -0.043 C 
ATOM     68  H   UNL     1     146.423 169.352 182.096  0.00  0.00    +0.027 HD
ATOM     69  H   UNL     1     145.198 170.599 182.313  0.00  0.00    +0.027 HD
ATOM     70  H   UNL     1     144.772 168.915 182.601  0.00  0.00    +0.027 HD
ENDBRANCH  18  67
BRANCH   7  71
ATOM     71  C   UNL     1     142.720 176.305 183.445  0.00  0.00    -0.057 C 
ATOM     72  H   UNL     1     141.794 176.435 182.875  0.00  0.00    +0.023 HD
ATOM     73  H   UNL     1     143.106 177.290 183.717  0.00  0.00    +0.023 HD
ATOM     74  H   UNL     1     143.472 175.869 182.778  0.00  0.00    +0.023 HD
ENDBRANCH   7  71
BRANCH  31  75
ATOM     75  O   UNL     1     139.755 171.454 192.130  0.00  0.00    -0.391 OA
ATOM     76  H   UNL     1     140.623 171.248 192.512  0.00  0.00    +0.210 HD
ENDBRANCH  31  75
BRANCH  25  77
ATOM     77  C   UNL     1     144.346 166.072 191.189  0.00  0.00    +0.020 C 
ATOM     78  H   UNL     1     143.642 165.795 191.984  0.00  0.00    +0.036 HD
BRANCH  77  79
ATOM     79  C   UNL     1     143.988 165.140 190.019  0.00  0.00    -0.057 C 
ATOM     80  H   UNL     1     143.775 164.121 190.335  0.00  0.00    +0.023 HD
ATOM     81  H   UNL     1     144.798 165.110 189.282  0.00  0.00    +0.023 HD
ATOM     82  H   UNL     1     143.095 165.511 189.501  0.00  0.00    +0.023 HD
ENDBRANCH  77  79
BRANCH  77  83
ATOM     83  C   UNL     1     145.772 165.740 191.744  0.00  0.00    +0.067 C 
ATOM     84  H   UNL     1     145.937 164.663 191.586  0.00  0.00    +0.060 HD
BRANCH  83  85
ATOM     85  C   UNL     1     145.926 165.989 193.280  0.00  0.00    -0.017 C 
ATOM     86  H   UNL     1     146.023 167.055 193.476  0.00  0.00    +0.032 HD
BRANCH  85  87
ATOM     87  C   UNL     1     144.654 165.530 194.010  0.00  0.00    -0.060 C 
ATOM     88  H   UNL     1     144.283 166.318 194.671  0.00  0.00    +0.023 HD
ATOM     89  H   UNL     1     143.849 165.294 193.307  0.00  0.00    +0.023 HD
ATOM     90  H   UNL     1     144.844 164.639 194.617  0.00  0.00    +0.023 HD
ENDBRANCH  85  87
BRANCH  85  91
ATOM     91  C   UNL     1     147.157 165.308 193.924  0.00  0.00    -0.041 C 
ATOM     92  H   UNL     1     147.463 164.448 193.317  0.00  0.00    +0.027 HD
ATOM     93  H   UNL     1     146.887 164.898 194.906  0.00  0.00    +0.027 HD
BRANCH  91  94
ATOM     94  C   UNL     1     148.349 166.259 194.104  0.00  0.00    +0.007 C 
ATOM     95  H   UNL     1     148.432 166.880 193.204  0.00  0.00    +0.034 HD
ATOM     96  H   UNL     1     148.185 166.920 194.954  0.00  0.00    +0.034 HD
BRANCH  94  97
ATOM     97  C   UNL     1     149.682 165.538 194.291  0.00  0.00    +0.139 C 
ATOM     98  O   UNL     1     149.840 164.691 195.176  0.00  0.00    -0.297 OA
BRANCH  97  99
ATOM     99  C   UNL     1     150.829 165.815 193.318  0.00  0.00    +0.041 C 
ATOM    100  H   UNL     1     151.029 164.839 192.854  0.00  0.00    +0.040 HD
BRANCH  99 101
ATOM    101  C   UNL     1     152.147 166.197 193.986  0.00  0.00    -0.053 C 
ATOM    102  H   UNL     1     152.922 166.465 193.261  0.00  0.00    +0.024 HD
ATOM    103  H   UNL     1     152.526 165.371 194.596  0.00  0.00    +0.024 HD
ATOM    104  H   UNL     1     152.006 167.058 194.647  0.00  0.00    +0.024 HD
ENDBRANCH  99 101
BRANCH  99 105
ATOM    105  C   UNL     1     150.381 166.787 192.203  0.00  0.00    +0.071 C 
ATOM    106  H   UNL     1     149.297 166.954 192.265  0.00  0.00    +0.061 HD
BRANCH 105 107
ATOM    107  C   UNL     1     151.091 168.156 192.266  0.00  0.00    -0.006 C 
ATOM    108  H   UNL     1     151.663 168.246 193.193  0.00  0.00    +0.033 HD
ATOM    109  H   UNL     1     151.796 168.249 191.431  0.00  0.00    +0.033 HD
BRANCH 107 110
ATOM    110  C   UNL     1     150.129 169.321 192.237  0.00  0.00    -0.067 C 
ATOM    111  C   UNL     1     150.534 170.600 192.211  0.00  0.00    -0.005 C 
ATOM    112  H   UNL     1     149.075 169.063 192.262  0.00  0.00    +0.059 HD
ATOM    113  H   UNL     1     151.601 170.813 192.179  0.00  0.00    +0.078 HD
BRANCH 111 114
ATOM    114  N   UNL     1     149.707 171.713 192.220  0.00  0.00    -0.284 N 
ATOM    115  C   UNL     1     149.083 172.140 191.051  0.00  0.00    +0.206 C 
ATOM    116  O   UNL     1     148.335 173.103 190.932  0.00  0.00    -0.279 OA
ATOM    117  H   UNL     1     149.331 171.508 190.180  0.00  0.00    +0.126 HD
BRANCH 114 118
ATOM    118  C   UNL     1     149.457 172.467 193.439  0.00  0.00    +0.007 C 
ATOM    119  H   UNL     1     149.570 173.538 193.240  0.00  0.00    +0.043 HD
ATOM    120  H   UNL     1     148.446 172.301 193.821  0.00  0.00    +0.043 HD
ATOM    121  H   UNL     1     150.171 172.150 194.208  0.00  0.00    +0.043 HD
ENDBRANCH 114 118
ENDBRANCH 111 114
ENDBRANCH 107 110
ENDBRANCH 105 107
BRANCH 105 122
ATOM    122  O   UNL     1     150.707 166.211 190.922  0.00  0.00    -0.379 OA
BRANCH 122 123
ATOM    123  C   UNL     1     151.873 166.773 190.333  0.00  0.00    +0.037 C 
ATOM    124  H   UNL     1     151.625 167.081 189.314  0.00  0.00    +0.052 HD
ATOM    125  H   UNL     1     152.673 166.029 190.284  0.00  0.00    +0.052 HD
ATOM    126  H   UNL     1     152.210 167.652 190.889  0.00  0.00    +0.052 HD
ENDBRANCH 122 123
ENDBRANCH 105 122
ENDBRANCH  99 105
ENDBRANCH  97  99
ENDBRANCH  94  97
ENDBRANCH  91  94
ENDBRANCH  85  91
ENDBRANCH  83  85
BRANCH  83 127
ATOM    127  O   UNL     1     146.752 166.467 191.007  0.00  0.00    -0.379 OA
BRANCH 127 128
ATOM    128  C   UNL     1     147.439 165.685 190.033  0.00  0.00    +0.037 C 
ATOM    129  H   UNL     1     146.730 165.112 189.428  0.00  0.00    +0.052 HD
ATOM    130  H   UNL     1     148.090 164.987 190.565  0.00  0.00    +0.052 HD
ATOM    131  H   UNL     1     148.056 166.321 189.392  0.00  0.00    +0.052 HD
ENDBRANCH 127 128
ENDBRANCH  83 127
ENDBRANCH  77  83
ENDBRANCH  25  77
BRANCH   9 132
ATOM    132  O   UNL     1     143.403 173.424 186.663  0.00  0.00    -0.384 OA
ATOM    133  H   UNL     1     143.017 173.569 187.543  0.00  0.00    +0.210 HD
ENDBRANCH   9 132
BRANCH  29 134
ATOM    134  O   UNL     1     143.743 172.904 191.066  0.00  0.00    -0.376 OA
BRANCH 134 135
ATOM    135  C   UNL     1     144.947 172.191 190.814  0.00  0.00    +0.037 C 
ATOM    136  H   UNL     1     144.968 171.924 189.754  0.00  0.00    +0.052 HD
ATOM    137  H   UNL     1     145.824 172.811 191.024  0.00  0.00    +0.052 HD
ATOM    138  H   UNL     1     144.984 171.267 191.401  0.00  0.00    +0.052 HD
ENDBRANCH 134 135
ENDBRANCH  29 134
BRANCH   6 139
ATOM    139  O   UNL     1     140.152 175.162 184.031  0.00  0.00    -0.379 OA
BRANCH 139 140
ATOM    140  C   UNL     1     139.244 176.198 183.672  0.00  0.00    +0.037 C 
ATOM    141  H   UNL     1     139.043 176.802 184.561  0.00  0.00    +0.052 HD
ATOM    142  H   UNL     1     139.682 176.843 182.906  0.00  0.00    +0.052 HD
ATOM    143  H   UNL     1     138.300 175.782 183.311  0.00  0.00    +0.052 HD
ENDBRANCH 139 140
ENDBRANCH   6 139
BRANCH  16 144
ATOM    144  O   UNL     1     146.487 172.605 182.975  0.00  0.00    -0.379 OA
BRANCH 144 145
ATOM    145  C   UNL     1     147.602 172.880 182.139  0.00  0.00    +0.037 C 
ATOM    146  H   UNL     1     148.005 173.878 182.347  0.00  0.00    +0.052 HD
ATOM    147  H   UNL     1     147.262 172.855 181.099  0.00  0.00    +0.052 HD
ATOM    148  H   UNL     1     148.382 172.124 182.260  0.00  0.00    +0.052 HD
ENDBRANCH 144 145
ENDBRANCH  16 144
BRANCH   4 149
ATOM    149  O   UNL     1     138.905 175.872 187.214  0.00  0.00    -0.376 OA
BRANCH 149 150
ATOM    150  C   UNL     1     137.604 175.995 187.772  0.00  0.00    +0.037 C 
ATOM    151  H   UNL     1     137.655 176.171 188.851  0.00  0.00    +0.052 HD
ATOM    152  H   UNL     1     137.072 175.058 187.600  0.00  0.00    +0.052 HD
ATOM    153  H   UNL     1     137.044 176.799 187.287  0.00  0.00    +0.052 HD
ENDBRANCH 149 150
ENDBRANCH   4 149
TORSDOF 33
ENDMDL
MODEL 7
REMARK VINA RESULT:      -5.1      3.168      5.048
REMARK  Name = Sphinxolide B_conf1
REMARK  33 active torsions:
REMARK  status: ('A' for Active; 'I' for Inactive)
REMARK    1  A    between atoms: C_1  and  C_2
REMARK    2  A    between atoms: C_5  and  O_67
REMARK    3  A    between atoms: C_7  and  O_65
REMARK    4  A    between atoms: C_8  and  C_64
REMARK    5  A    between atoms: C_10  and  O_63
REMARK    6  A    between atoms: C_17  and  O_61
REMARK    7  A    between atoms: C_19  and  C_60
REMARK    8  A    between atoms: C_26  and  C_37
REMARK    9  A    between atoms: C_27  and  C_36
REMARK   10  A    between atoms: C_30  and  O_34
REMARK   11  A    between atoms: C_32  and  O_33
REMARK   12  A    between atoms: O_34  and  C_35
REMARK   13  A    between atoms: C_37  and  C_38
REMARK   14  A    between atoms: C_37  and  C_39
REMARK   15  A    between atoms: C_39  and  C_40
REMARK   16  A    between atoms: C_39  and  O_58
REMARK   17  A    between atoms: C_40  and  C_41
REMARK   18  A    between atoms: C_40  and  C_42
REMARK   19  A    between atoms: C_42  and  C_43
REMARK   20  A    between atoms: C_43  and  C_44
REMARK   21  A    between atoms: C_44  and  C_46
REMARK   22  A    between atoms: C_46  and  C_47
REMARK   23  A    between atoms: C_46  and  C_48
REMARK   24  A    between atoms: C_48  and  C_49
REMARK   25  A    between atoms: C_48  and  O_56
REMARK   26  A    between atoms: C_49  and  C_50
REMARK   27  A    between atoms: C_51  and  N_52
REMARK   28  A    between atoms: N_52  and  C_53
REMARK   29  A    between atoms: O_56  and  C_57
REMARK   30  A    between atoms: O_58  and  C_59
REMARK   31  A    between atoms: O_61  and  C_62
REMARK   32  A    between atoms: O_65  and  C_66
REMARK   33  A    between atoms: O_67  and  C_68
REMARK                            x       y       z     vdW  Elec       q    Type
REMARK                         _______ _______ _______ _____ _____    ______ ____
ROOT
ATOM      1  C   UNL     1     146.188 163.662 185.827  0.00  0.00    +0.000 C 
ATOM      2  C   UNL     1     147.543 163.118 186.234  0.00  0.00    -0.080 C 
ATOM      3  C   UNL     1     147.957 161.837 186.240  0.00  0.00    -0.059 C 
ATOM      4  C   UNL     1     149.316 161.311 186.681  0.00  0.00    +0.079 C 
ATOM      5  C   UNL     1     150.187 162.369 187.381  0.00  0.00    +0.004 C 
ATOM      6  C   UNL     1     151.568 161.873 187.838  0.00  0.00    +0.067 C 
ATOM      7  C   UNL     1     152.384 162.989 188.584  0.00  0.00    +0.022 C 
ATOM      8  C   UNL     1     152.622 164.251 187.683  0.00  0.00    +0.138 C 
ATOM      9  C   UNL     1     151.804 165.506 188.087  0.00  0.00    +0.114 C 
ATOM     10  C   UNL     1     152.401 166.127 189.326  0.00  0.00    -0.029 C 
ATOM     11  C   UNL     1     153.737 166.065 189.465  0.00  0.00    +0.024 C 
ATOM     12  C   UNL     1     154.615 165.431 188.463  0.00  0.00    +0.332 C 
ATOM     13  O   UNL     1     155.820 165.650 188.467  0.00  0.00    -0.246 OA
ATOM     14  O   UNL     1     154.026 164.604 187.566  0.00  0.00    -0.455 OA
ATOM     15  C   UNL     1     151.459 166.774 190.330  0.00  0.00    -0.002 C 
ATOM     16  C   UNL     1     152.064 167.478 191.569  0.00  0.00    +0.066 C 
ATOM     17  C   UNL     1     150.971 168.233 192.375  0.00  0.00    -0.005 C 
ATOM     18  C   UNL     1     149.794 167.397 192.856  0.00  0.00    -0.070 C 
ATOM     19  C   UNL     1     148.539 167.448 192.368  0.00  0.00    -0.062 C 
ATOM     20  C   UNL     1     148.055 168.259 191.272  0.00  0.00    -0.055 C 
ATOM     21  C   UNL     1     146.788 168.182 190.839  0.00  0.00    +0.023 C 
ATOM     22  C   UNL     1     146.339 169.005 189.698  0.00  0.00    +0.332 C 
ATOM     23  O   UNL     1     146.989 169.891 189.165  0.00  0.00    -0.246 OA
ATOM     24  O   UNL     1     145.104 168.572 189.358  0.00  0.00    -0.457 OA
ATOM     25  C   UNL     1     144.427 169.208 188.235  0.00  0.00    +0.114 C 
ATOM     26  C   UNL     1     144.122 168.082 187.197  0.00  0.00    +0.012 C 
ATOM     27  C   UNL     1     145.418 167.354 186.845  0.00  0.00    -0.079 C 
ATOM     28  C   UNL     1     146.077 167.336 185.674  0.00  0.00    -0.059 C 
ATOM     29  C   UNL     1     147.364 166.583 185.462  0.00  0.00    +0.079 C 
ATOM     30  C   UNL     1     147.289 165.532 184.339  0.00  0.00    +0.004 C 
ATOM     31  C   UNL     1     146.241 164.412 184.466  0.00  0.00    +0.064 C 
ATOM     32  H   UNL     1     145.888 164.373 186.605  0.00  0.00    +0.037 HD
ATOM     33  H   UNL     1     148.239 163.884 186.572  0.00  0.00    +0.057 HD
ATOM     34  H   UNL     1     147.271 161.061 185.910  0.00  0.00    +0.059 HD
ATOM     35  H   UNL     1     149.155 160.473 187.371  0.00  0.00    +0.064 HD
ATOM     36  H   UNL     1     150.336 163.198 186.683  0.00  0.00    +0.032 HD
ATOM     37  H   UNL     1     149.638 162.733 188.258  0.00  0.00    +0.032 HD
ATOM     38  H   UNL     1     152.145 161.538 186.965  0.00  0.00    +0.060 HD
ATOM     39  H   UNL     1     151.787 163.281 189.459  0.00  0.00    +0.036 HD
ATOM     40  H   UNL     1     152.330 163.997 186.657  0.00  0.00    +0.077 HD
ATOM     41  H   UNL     1     151.863 166.243 187.277  0.00  0.00    +0.068 HD
ATOM     42  H   UNL     1     154.271 166.497 190.304  0.00  0.00    +0.069 HD
ATOM     43  H   UNL     1     150.855 167.510 189.782  0.00  0.00    +0.034 HD
ATOM     44  H   UNL     1     150.788 165.980 190.683  0.00  0.00    +0.034 HD
ATOM     45  H   UNL     1     152.799 168.218 191.221  0.00  0.00    +0.060 HD
ATOM     46  H   UNL     1     150.623 169.071 191.761  0.00  0.00    +0.034 HD
ATOM     47  H   UNL     1     151.420 168.708 193.254  0.00  0.00    +0.034 HD
ATOM     48  H   UNL     1     147.789 166.795 192.823  0.00  0.00    +0.062 HD
ATOM     49  H   UNL     1     148.741 168.945 190.781  0.00  0.00    +0.062 HD
ATOM     50  H   UNL     1     146.057 167.517 191.285  0.00  0.00    +0.069 HD
ATOM     51  H   UNL     1     145.120 169.911 187.751  0.00  0.00    +0.074 HD
ATOM     52  H   UNL     1     143.508 167.312 187.678  0.00  0.00    +0.038 HD
ATOM     53  H   UNL     1     145.841 166.778 187.669  0.00  0.00    +0.057 HD
ATOM     54  H   UNL     1     145.709 167.884 184.811  0.00  0.00    +0.059 HD
ATOM     55  H   UNL     1     147.686 166.093 186.387  0.00  0.00    +0.064 HD
ATOM     56  H   UNL     1     148.284 165.079 184.238  0.00  0.00    +0.032 HD
ATOM     57  H   UNL     1     147.120 166.059 183.386  0.00  0.00    +0.032 HD
ATOM     58  H   UNL     1     146.459 163.686 183.672  0.00  0.00    +0.060 HD
ENDROOT
BRANCH   1  59
ATOM     59  C   UNL     1     145.081 162.593 185.815  0.00  0.00    -0.057 C 
ATOM     60  H   UNL     1     145.264 161.839 185.041  0.00  0.00    +0.024 HD
ATOM     61  H   UNL     1     145.042 162.061 186.772  0.00  0.00    +0.024 HD
ATOM     62  H   UNL     1     144.095 163.035 185.636  0.00  0.00    +0.024 HD
ENDBRANCH   1  59
BRANCH  26  63
ATOM     63  C   UNL     1     143.378 168.564 185.950  0.00  0.00    -0.056 C 
ATOM     64  H   UNL     1     142.351 168.860 186.182  0.00  0.00    +0.024 HD
ATOM     65  H   UNL     1     143.884 169.422 185.490  0.00  0.00    +0.024 HD
ATOM     66  H   UNL     1     143.351 167.796 185.177  0.00  0.00    +0.024 HD
ENDBRANCH  26  63
BRANCH  18  67
ATOM     67  C   UNL     1     150.099 166.462 194.002  0.00  0.00    -0.043 C 
ATOM     68  H   UNL     1     149.228 165.845 194.241  0.00  0.00    +0.027 HD
ATOM     69  H   UNL     1     150.374 167.001 194.914  0.00  0.00    +0.027 HD
ATOM     70  H   UNL     1     150.940 165.805 193.752  0.00  0.00    +0.027 HD
ENDBRANCH  18  67
BRANCH   7  71
ATOM     71  C   UNL     1     153.685 162.398 189.151  0.00  0.00    -0.057 C 
ATOM     72  H   UNL     1     153.612 161.311 189.264  0.00  0.00    +0.023 HD
ATOM     73  H   UNL     1     154.542 162.627 188.513  0.00  0.00    +0.023 HD
ATOM     74  H   UNL     1     153.923 162.827 190.129  0.00  0.00    +0.023 HD
ENDBRANCH   7  71
BRANCH  31  75
ATOM     75  O   UNL     1     144.958 164.966 184.150  0.00  0.00    -0.391 OA
ATOM     76  H   UNL     1     144.765 164.755 183.223  0.00  0.00    +0.210 HD
ENDBRANCH  31  75
BRANCH  25  77
ATOM     77  C   UNL     1     143.268 170.061 188.853  0.00  0.00    +0.020 C 
ATOM     78  H   UNL     1     142.499 170.116 188.071  0.00  0.00    +0.036 HD
BRANCH  77  79
ATOM     79  C   UNL     1     142.581 169.324 190.015  0.00  0.00    -0.057 C 
ATOM     80  H   UNL     1     141.513 169.525 190.076  0.00  0.00    +0.023 HD
ATOM     81  H   UNL     1     143.037 169.596 190.973  0.00  0.00    +0.023 HD
ATOM     82  H   UNL     1     142.700 168.240 189.897  0.00  0.00    +0.023 HD
ENDBRANCH  77  79
BRANCH  77  83
ATOM     83  C   UNL     1     143.583 171.543 189.248  0.00  0.00    +0.067 C 
ATOM     84  H   UNL     1     144.547 171.803 188.783  0.00  0.00    +0.060 HD
BRANCH  83  85
ATOM     85  C   UNL     1     143.761 171.763 190.785  0.00  0.00    -0.017 C 
ATOM     86  H   UNL     1     143.659 170.816 191.312  0.00  0.00    +0.032 HD
BRANCH  85  87
ATOM     87  C   UNL     1     145.184 172.268 191.077  0.00  0.00    -0.060 C 
ATOM     88  H   UNL     1     145.188 172.926 191.949  0.00  0.00    +0.023 HD
ATOM     89  H   UNL     1     145.867 171.441 191.293  0.00  0.00    +0.023 HD
ATOM     90  H   UNL     1     145.588 172.827 190.227  0.00  0.00    +0.023 HD
ENDBRANCH  85  87
BRANCH  85  91
ATOM     91  C   UNL     1     142.737 172.733 191.421  0.00  0.00    -0.041 C 
ATOM     92  H   UNL     1     142.153 172.206 192.186  0.00  0.00    +0.027 HD
ATOM     93  H   UNL     1     142.010 173.060 190.666  0.00  0.00    +0.027 HD
BRANCH  91  94
ATOM     94  C   UNL     1     143.388 173.978 192.042  0.00  0.00    +0.007 C 
ATOM     95  H   UNL     1     143.596 173.766 193.097  0.00  0.00    +0.034 HD
ATOM     96  H   UNL     1     144.333 174.199 191.550  0.00  0.00    +0.034 HD
BRANCH  94  97
ATOM     97  C   UNL     1     142.502 175.221 191.987  0.00  0.00    +0.139 C 
ATOM     98  O   UNL     1     141.984 175.599 190.933  0.00  0.00    -0.297 OA
BRANCH  97  99
ATOM     99  C   UNL     1     142.189 175.976 193.280  0.00  0.00    +0.041 C 
ATOM    100  H   UNL     1     142.210 177.035 192.985  0.00  0.00    +0.040 HD
BRANCH  99 101
ATOM    101  C   UNL     1     143.264 175.860 194.357  0.00  0.00    -0.053 C 
ATOM    102  H   UNL     1     142.888 176.110 195.354  0.00  0.00    +0.024 HD
ATOM    103  H   UNL     1     144.106 176.524 194.137  0.00  0.00    +0.024 HD
ATOM    104  H   UNL     1     143.653 174.838 194.401  0.00  0.00    +0.024 HD
ENDBRANCH  99 101
BRANCH  99 105
ATOM    105  C   UNL     1     140.761 175.651 193.775  0.00  0.00    +0.071 C 
ATOM    106  H   UNL     1     140.070 175.607 192.922  0.00  0.00    +0.061 HD
BRANCH 105 107
ATOM    107  C   UNL     1     140.672 174.316 194.546  0.00  0.00    -0.006 C 
ATOM    108  H   UNL     1     141.673 173.943 194.777  0.00  0.00    +0.033 HD
ATOM    109  H   UNL     1     140.147 174.468 195.496  0.00  0.00    +0.033 HD
BRANCH 107 110
ATOM    110  C   UNL     1     139.976 173.229 193.761  0.00  0.00    -0.067 C 
ATOM    111  C   UNL     1     139.276 173.471 192.642  0.00  0.00    -0.005 C 
ATOM    112  H   UNL     1     140.055 172.227 194.172  0.00  0.00    +0.059 HD
ATOM    113  H   UNL     1     139.230 174.490 192.262  0.00  0.00    +0.078 HD
BRANCH 111 114
ATOM    114  N   UNL     1     138.585 172.527 191.897  0.00  0.00    -0.284 N 
ATOM    115  C   UNL     1     139.245 171.418 191.376  0.00  0.00    +0.206 C 
ATOM    116  O   UNL     1     138.747 170.521 190.705  0.00  0.00    -0.279 OA
ATOM    117  H   UNL     1     140.321 171.406 191.624  0.00  0.00    +0.126 HD
BRANCH 114 118
ATOM    118  C   UNL     1     137.159 172.656 191.637  0.00  0.00    +0.007 C 
ATOM    119  H   UNL     1     136.789 173.590 192.072  0.00  0.00    +0.043 HD
ATOM    120  H   UNL     1     136.940 172.672 190.566  0.00  0.00    +0.043 HD
ATOM    121  H   UNL     1     136.637 171.802 192.082  0.00  0.00    +0.043 HD
ENDBRANCH 114 118
ENDBRANCH 111 114
ENDBRANCH 107 110
ENDBRANCH 105 107
BRANCH 105 122
ATOM    122  O   UNL     1     140.336 176.684 194.687  0.00  0.00    -0.379 OA
BRANCH 122 123
ATOM    123  C   UNL     1     139.930 176.182 195.954  0.00  0.00    +0.037 C 
ATOM    124  H   UNL     1     140.828 175.940 196.529  0.00  0.00    +0.052 HD
ATOM    125  H   UNL     1     139.342 175.268 195.833  0.00  0.00    +0.052 HD
ATOM    126  H   UNL     1     139.355 176.929 196.508  0.00  0.00    +0.052 HD
ENDBRANCH 122 123
ENDBRANCH 105 122
ENDBRANCH  99 105
ENDBRANCH  97  99
ENDBRANCH  94  97
ENDBRANCH  91  94
ENDBRANCH  85  91
ENDBRANCH  83  85
BRANCH  83 127
ATOM    127  O   UNL     1     142.574 172.402 188.722  0.00  0.00    -0.379 OA
BRANCH 127 128
ATOM    128  C   UNL     1     143.058 173.345 187.769  0.00  0.00    +0.037 C 
ATOM    129  H   UNL     1     143.756 172.869 187.074  0.00  0.00    +0.052 HD
ATOM    130  H   UNL     1     143.588 174.129 188.316  0.00  0.00    +0.052 HD
ATOM    131  H   UNL     1     142.229 173.800 187.220  0.00  0.00    +0.052 HD
ENDBRANCH 127 128
ENDBRANCH  83 127
ENDBRANCH  77  83
ENDBRANCH  25  77
BRANCH   9 132
ATOM    132  O   UNL     1     150.435 165.190 188.278  0.00  0.00    -0.384 OA
ATOM    133  H   UNL     1     150.166 164.604 187.549  0.00  0.00    +0.210 HD
ENDBRANCH   9 132
BRANCH  29 134
ATOM    134  O   UNL     1     148.395 167.509 185.078  0.00  0.00    -0.376 OA
BRANCH 134 135
ATOM    135  C   UNL     1     149.052 168.129 186.176  0.00  0.00    +0.037 C 
ATOM    136  H   UNL     1     149.955 167.554 186.399  0.00  0.00    +0.052 HD
ATOM    137  H   UNL     1     149.355 169.151 185.929  0.00  0.00    +0.052 HD
ATOM    138  H   UNL     1     148.413 168.125 187.066  0.00  0.00    +0.052 HD
ENDBRANCH 134 135
ENDBRANCH  29 134
BRANCH   6 139
ATOM    139  O   UNL     1     151.347 160.779 188.748  0.00  0.00    -0.379 OA
BRANCH 139 140
ATOM    140  C   UNL     1     151.918 159.556 188.294  0.00  0.00    +0.037 C 
ATOM    141  H   UNL     1     152.879 159.781 187.821  0.00  0.00    +0.052 HD
ATOM    142  H   UNL     1     152.094 158.880 189.133  0.00  0.00    +0.052 HD
ATOM    143  H   UNL     1     151.271 159.073 187.557  0.00  0.00    +0.052 HD
ENDBRANCH 139 140
ENDBRANCH   6 139
BRANCH  16 144
ATOM    144  O   UNL     1     152.736 166.499 192.373  0.00  0.00    -0.379 OA
BRANCH 144 145
ATOM    145  C   UNL     1     153.686 167.044 193.277  0.00  0.00    +0.037 C 
ATOM    146  H   UNL     1     153.776 166.416 194.170  0.00  0.00    +0.052 HD
ATOM    147  H   UNL     1     153.334 168.034 193.585  0.00  0.00    +0.052 HD
ATOM    148  H   UNL     1     154.662 167.164 192.799  0.00  0.00    +0.052 HD
ENDBRANCH 144 145
ENDBRANCH  16 144
BRANCH   4 149
ATOM    149  O   UNL     1     150.026 160.861 185.517  0.00  0.00    -0.376 OA
BRANCH 149 150
ATOM    150  C   UNL     1     149.777 159.501 185.189  0.00  0.00    +0.037 C 
ATOM    151  H   UNL     1     148.736 159.232 185.394  0.00  0.00    +0.052 HD
ATOM    152  H   UNL     1     150.423 158.879 185.812  0.00  0.00    +0.052 HD
ATOM    153  H   UNL     1     150.018 159.300 184.142  0.00  0.00    +0.052 HD
ENDBRANCH 149 150
ENDBRANCH   4 149
TORSDOF 33
ENDMDL
MODEL 8
REMARK VINA RESULT:      -5.1      3.956     12.216
REMARK  Name = Sphinxolide B_conf1
REMARK  33 active torsions:
REMARK  status: ('A' for Active; 'I' for Inactive)
REMARK    1  A    between atoms: C_1  and  C_2
REMARK    2  A    between atoms: C_5  and  O_67
REMARK    3  A    between atoms: C_7  and  O_65
REMARK    4  A    between atoms: C_8  and  C_64
REMARK    5  A    between atoms: C_10  and  O_63
REMARK    6  A    between atoms: C_17  and  O_61
REMARK    7  A    between atoms: C_19  and  C_60
REMARK    8  A    between atoms: C_26  and  C_37
REMARK    9  A    between atoms: C_27  and  C_36
REMARK   10  A    between atoms: C_30  and  O_34
REMARK   11  A    between atoms: C_32  and  O_33
REMARK   12  A    between atoms: O_34  and  C_35
REMARK   13  A    between atoms: C_37  and  C_38
REMARK   14  A    between atoms: C_37  and  C_39
REMARK   15  A    between atoms: C_39  and  C_40
REMARK   16  A    between atoms: C_39  and  O_58
REMARK   17  A    between atoms: C_40  and  C_41
REMARK   18  A    between atoms: C_40  and  C_42
REMARK   19  A    between atoms: C_42  and  C_43
REMARK   20  A    between atoms: C_43  and  C_44
REMARK   21  A    between atoms: C_44  and  C_46
REMARK   22  A    between atoms: C_46  and  C_47
REMARK   23  A    between atoms: C_46  and  C_48
REMARK   24  A    between atoms: C_48  and  C_49
REMARK   25  A    between atoms: C_48  and  O_56
REMARK   26  A    between atoms: C_49  and  C_50
REMARK   27  A    between atoms: C_51  and  N_52
REMARK   28  A    between atoms: N_52  and  C_53
REMARK   29  A    between atoms: O_56  and  C_57
REMARK   30  A    between atoms: O_58  and  C_59
REMARK   31  A    between atoms: O_61  and  C_62
REMARK   32  A    between atoms: O_65  and  C_66
REMARK   33  A    between atoms: O_67  and  C_68
REMARK                            x       y       z     vdW  Elec       q    Type
REMARK                         _______ _______ _______ _____ _____    ______ ____
ROOT
ATOM      1  C   UNL     1     142.332 170.942 189.552  0.00  0.00    +0.000 C 
ATOM      2  C   UNL     1     142.104 172.298 188.914  0.00  0.00    -0.080 C 
ATOM      3  C   UNL     1     140.973 173.026 188.888  0.00  0.00    -0.059 C 
ATOM      4  C   UNL     1     140.761 174.376 188.215  0.00  0.00    +0.079 C 
ATOM      5  C   UNL     1     141.930 174.800 187.309  0.00  0.00    +0.004 C 
ATOM      6  C   UNL     1     141.751 176.159 186.615  0.00  0.00    +0.067 C 
ATOM      7  C   UNL     1     142.959 176.508 185.672  0.00  0.00    +0.022 C 
ATOM      8  C   UNL     1     144.321 176.562 186.447  0.00  0.00    +0.138 C 
ATOM      9  C   UNL     1     145.288 175.385 186.152  0.00  0.00    +0.114 C 
ATOM     10  C   UNL     1     145.915 175.570 184.792  0.00  0.00    -0.029 C 
ATOM     11  C   UNL     1     146.174 176.829 184.397  0.00  0.00    +0.024 C 
ATOM     12  C   UNL     1     145.879 178.005 185.237  0.00  0.00    +0.332 C 
ATOM     13  O   UNL     1     146.389 179.090 184.987  0.00  0.00    -0.246 OA
ATOM     14  O   UNL     1     145.022 177.822 186.271  0.00  0.00    -0.455 OA
ATOM     15  C   UNL     1     146.207 174.328 183.962  0.00  0.00    -0.002 C 
ATOM     16  C   UNL     1     146.917 174.498 182.597  0.00  0.00    +0.066 C 
ATOM     17  C   UNL     1     147.294 173.121 181.985  0.00  0.00    -0.005 C 
ATOM     18  C   UNL     1     146.149 172.139 181.784  0.00  0.00    -0.070 C 
ATOM     19  C   UNL     1     145.933 171.021 182.505  0.00  0.00    -0.062 C 
ATOM     20  C   UNL     1     146.701 170.542 183.634  0.00  0.00    -0.055 C 
ATOM     21  C   UNL     1     146.352 169.438 184.311  0.00  0.00    +0.023 C 
ATOM     22  C   UNL     1     147.144 168.998 185.476  0.00  0.00    +0.332 C 
ATOM     23  O   UNL     1     148.211 169.476 185.829  0.00  0.00    -0.246 OA
ATOM     24  O   UNL     1     146.452 168.000 186.072  0.00  0.00    -0.457 OA
ATOM     25  C   UNL     1     147.005 167.388 187.274  0.00  0.00    +0.114 C 
ATOM     26  C   UNL     1     145.944 167.579 188.404  0.00  0.00    +0.012 C 
ATOM     27  C   UNL     1     145.600 169.061 188.530  0.00  0.00    -0.079 C 
ATOM     28  C   UNL     1     145.859 169.899 189.549  0.00  0.00    -0.059 C 
ATOM     29  C   UNL     1     145.474 171.354 189.541  0.00  0.00    +0.079 C 
ATOM     30  C   UNL     1     144.551 171.758 190.706  0.00  0.00    +0.004 C 
ATOM     31  C   UNL     1     143.199 171.035 190.839  0.00  0.00    +0.064 C 
ATOM     32  H   UNL     1     142.867 170.333 188.815  0.00  0.00    +0.037 HD
ATOM     33  H   UNL     1     142.983 172.697 188.411  0.00  0.00    +0.057 HD
ATOM     34  H   UNL     1     140.086 172.637 189.383  0.00  0.00    +0.059 HD
ATOM     35  H   UNL     1     139.847 174.321 187.612  0.00  0.00    +0.064 HD
ATOM     36  H   UNL     1     142.833 174.847 187.924  0.00  0.00    +0.032 HD
ATOM     37  H   UNL     1     142.060 174.029 186.540  0.00  0.00    +0.032 HD
ATOM     38  H   UNL     1     141.657 176.949 187.373  0.00  0.00    +0.060 HD
ATOM     39  H   UNL     1     143.007 175.710 184.917  0.00  0.00    +0.036 HD
ATOM     40  H   UNL     1     144.102 176.533 187.522  0.00  0.00    +0.077 HD
ATOM     41  H   UNL     1     146.091 175.391 186.899  0.00  0.00    +0.068 HD
ATOM     42  H   UNL     1     146.643 177.073 183.450  0.00  0.00    +0.069 HD
ATOM     43  H   UNL     1     146.819 173.659 184.581  0.00  0.00    +0.034 HD
ATOM     44  H   UNL     1     145.241 173.838 183.785  0.00  0.00    +0.034 HD
ATOM     45  H   UNL     1     147.846 175.063 182.758  0.00  0.00    +0.060 HD
ATOM     46  H   UNL     1     148.074 172.679 182.614  0.00  0.00    +0.034 HD
ATOM     47  H   UNL     1     147.779 173.267 181.013  0.00  0.00    +0.034 HD
ATOM     48  H   UNL     1     145.074 170.401 182.237  0.00  0.00    +0.062 HD
ATOM     49  H   UNL     1     147.579 171.100 183.948  0.00  0.00    +0.062 HD
ATOM     50  H   UNL     1     145.486 168.841 184.048  0.00  0.00    +0.069 HD
ATOM     51  H   UNL     1     147.902 167.947 187.579  0.00  0.00    +0.074 HD
ATOM     52  H   UNL     1     145.003 167.113 188.090  0.00  0.00    +0.038 HD
ATOM     53  H   UNL     1     145.070 169.469 187.667  0.00  0.00    +0.057 HD
ATOM     54  H   UNL     1     146.379 169.558 190.440  0.00  0.00    +0.059 HD
ATOM     55  H   UNL     1     144.992 171.625 188.595  0.00  0.00    +0.064 HD
ATOM     56  H   UNL     1     144.372 172.838 190.631  0.00  0.00    +0.032 HD
ATOM     57  H   UNL     1     145.109 171.628 191.646  0.00  0.00    +0.032 HD
ATOM     58  H   UNL     1     142.629 171.573 191.608  0.00  0.00    +0.060 HD
ENDROOT
BRANCH   1  59
ATOM     59  C   UNL     1     141.027 170.174 189.831  0.00  0.00    -0.057 C 
ATOM     60  H   UNL     1     140.461 170.635 190.649  0.00  0.00    +0.024 HD
ATOM     61  H   UNL     1     140.373 170.181 188.951  0.00  0.00    +0.024 HD
ATOM     62  H   UNL     1     141.222 169.130 190.097  0.00  0.00    +0.024 HD
ENDBRANCH   1  59
BRANCH  26  63
ATOM     63  C   UNL     1     146.344 166.967 189.748  0.00  0.00    -0.056 C 
ATOM     64  H   UNL     1     146.268 167.694 190.562  0.00  0.00    +0.024 HD
ATOM     65  H   UNL     1     145.711 166.107 189.999  0.00  0.00    +0.024 HD
ATOM     66  H   UNL     1     147.363 166.579 189.724  0.00  0.00    +0.024 HD
ENDBRANCH  26  63
BRANCH  18  67
ATOM     67  C   UNL     1     145.213 172.471 180.646  0.00  0.00    -0.043 C 
ATOM     68  H   UNL     1     145.776 172.751 179.750  0.00  0.00    +0.027 HD
ATOM     69  H   UNL     1     144.549 173.307 180.886  0.00  0.00    +0.027 HD
ATOM     70  H   UNL     1     144.575 171.612 180.409  0.00  0.00    +0.027 HD
ENDBRANCH  18  67
BRANCH   7  71
ATOM     71  C   UNL     1     142.657 177.797 184.890  0.00  0.00    -0.057 C 
ATOM     72  H   UNL     1     142.808 178.686 185.513  0.00  0.00    +0.023 HD
ATOM     73  H   UNL     1     143.286 177.883 184.000  0.00  0.00    +0.023 HD
ATOM     74  H   UNL     1     141.626 177.809 184.524  0.00  0.00    +0.023 HD
ENDBRANCH   7  71
BRANCH  31  75
ATOM     75  O   UNL     1     143.444 169.728 191.373  0.00  0.00    -0.391 OA
ATOM     76  H   UNL     1     144.379 169.517 191.219  0.00  0.00    +0.210 HD
ENDBRANCH  31  75
BRANCH  25  77
ATOM     77  C   UNL     1     147.479 165.956 186.855  0.00  0.00    +0.020 C 
ATOM     78  H   UNL     1     147.193 165.300 187.688  0.00  0.00    +0.036 HD
BRANCH  77  79
ATOM     79  C   UNL     1     146.677 165.423 185.656  0.00  0.00    -0.057 C 
ATOM     80  H   UNL     1     146.857 164.369 185.456  0.00  0.00    +0.023 HD
ATOM     81  H   UNL     1     146.910 165.990 184.747  0.00  0.00    +0.023 HD
ATOM     82  H   UNL     1     145.602 165.538 185.840  0.00  0.00    +0.023 HD
ENDBRANCH  77  79
BRANCH  77  83
ATOM     83  C   UNL     1     149.013 165.730 186.638  0.00  0.00    +0.067 C 
ATOM     84  H   UNL     1     149.205 164.656 186.785  0.00  0.00    +0.060 HD
BRANCH  83  85
ATOM     85  C   UNL     1     149.915 166.485 187.668  0.00  0.00    -0.017 C 
ATOM     86  H   UNL     1     149.524 167.485 187.844  0.00  0.00    +0.032 HD
BRANCH  85  87
ATOM     87  C   UNL     1     149.874 165.760 189.023  0.00  0.00    -0.060 C 
ATOM     88  H   UNL     1     150.610 164.954 189.053  0.00  0.00    +0.023 HD
ATOM     89  H   UNL     1     150.105 166.440 189.849  0.00  0.00    +0.023 HD
ATOM     90  H   UNL     1     148.887 165.326 189.211  0.00  0.00    +0.023 HD
ENDBRANCH  85  87
BRANCH  85  91
ATOM     91  C   UNL     1     151.389 166.659 187.229  0.00  0.00    -0.041 C 
ATOM     92  H   UNL     1     151.685 167.710 187.340  0.00  0.00    +0.027 HD
ATOM     93  H   UNL     1     151.491 166.433 186.160  0.00  0.00    +0.027 HD
BRANCH  91  94
ATOM     94  C   UNL     1     152.363 165.767 188.013  0.00  0.00    +0.007 C 
ATOM     95  H   UNL     1     151.792 165.217 188.769  0.00  0.00    +0.034 HD
ATOM     96  H   UNL     1     152.830 165.040 187.350  0.00  0.00    +0.034 HD
BRANCH  94  97
ATOM     97  C   UNL     1     153.457 166.548 188.737  0.00  0.00    +0.139 C 
ATOM     98  O   UNL     1     154.195 167.335 188.137  0.00  0.00    -0.297 OA
BRANCH  97  99
ATOM     99  C   UNL     1     153.599 166.409 190.253  0.00  0.00    +0.041 C 
ATOM    100  H   UNL     1     154.472 167.030 190.500  0.00  0.00    +0.040 HD
BRANCH  99 101
ATOM    101  C   UNL     1     153.983 165.009 190.727  0.00  0.00    -0.053 C 
ATOM    102  H   UNL     1     153.942 164.268 189.922  0.00  0.00    +0.024 HD
ATOM    103  H   UNL     1     153.318 164.675 191.529  0.00  0.00    +0.024 HD
ATOM    104  H   UNL     1     155.004 165.006 191.123  0.00  0.00    +0.024 HD
ENDBRANCH  99 101
BRANCH  99 105
ATOM    105  C   UNL     1     152.372 167.006 190.978  0.00  0.00    +0.071 C 
ATOM    106  H   UNL     1     151.485 166.386 190.786  0.00  0.00    +0.061 HD
BRANCH 105 107
ATOM    107  C   UNL     1     152.563 167.125 192.506  0.00  0.00    -0.006 C 
ATOM    108  H   UNL     1     153.576 166.825 192.787  0.00  0.00    +0.033 HD
ATOM    109  H   UNL     1     152.428 168.167 192.818  0.00  0.00    +0.033 HD
BRANCH 107 110
ATOM    110  C   UNL     1     151.619 166.244 193.288  0.00  0.00    -0.067 C 
ATOM    111  C   UNL     1     150.399 166.647 193.677  0.00  0.00    -0.005 C 
ATOM    112  H   UNL     1     151.995 165.259 193.544  0.00  0.00    +0.059 HD
ATOM    113  H   UNL     1     150.059 167.641 193.391  0.00  0.00    +0.078 HD
BRANCH 111 114
ATOM    114  N   UNL     1     149.499 165.904 194.426  0.00  0.00    -0.284 N 
ATOM    115  C   UNL     1     149.725 165.676 195.780  0.00  0.00    +0.206 C 
ATOM    116  O   UNL     1     149.009 165.039 196.543  0.00  0.00    -0.279 OA
ATOM    117  H   UNL     1     150.662 166.138 196.139  0.00  0.00    +0.126 HD
BRANCH 114 118
ATOM    118  C   UNL     1     148.293 165.345 193.833  0.00  0.00    +0.007 C 
ATOM    119  H   UNL     1     147.413 165.718 194.368  0.00  0.00    +0.043 HD
ATOM    120  H   UNL     1     148.190 165.621 192.780  0.00  0.00    +0.043 HD
ATOM    121  H   UNL     1     148.337 164.252 193.898  0.00  0.00    +0.043 HD
ENDBRANCH 114 118
ENDBRANCH 111 114
ENDBRANCH 107 110
ENDBRANCH 105 107
BRANCH 105 122
ATOM    122  O   UNL     1     152.142 168.341 190.485  0.00  0.00    -0.379 OA
BRANCH 122 123
ATOM    123  C   UNL     1     151.716 169.247 191.495  0.00  0.00    +0.037 C 
ATOM    124  H   UNL     1     150.763 169.681 191.184  0.00  0.00    +0.052 HD
ATOM    125  H   UNL     1     152.442 170.057 191.612  0.00  0.00    +0.052 HD
ATOM    126  H   UNL     1     151.569 168.733 192.449  0.00  0.00    +0.052 HD
ENDBRANCH 122 123
ENDBRANCH 105 122
ENDBRANCH  99 105
ENDBRANCH  97  99
ENDBRANCH  94  97
ENDBRANCH  91  94
ENDBRANCH  85  91
ENDBRANCH  83  85
BRANCH  83 127
ATOM    127  O   UNL     1     149.363 166.078 185.300  0.00  0.00    -0.379 OA
BRANCH 127 128
ATOM    128  C   UNL     1     149.911 164.999 184.547  0.00  0.00    +0.037 C 
ATOM    129  H   UNL     1     149.635 164.039 184.992  0.00  0.00    +0.052 HD
ATOM    130  H   UNL     1     150.999 165.096 184.569  0.00  0.00    +0.052 HD
ATOM    131  H   UNL     1     149.575 165.044 183.507  0.00  0.00    +0.052 HD
ENDBRANCH 127 128
ENDBRANCH  83 127
ENDBRANCH  77  83
ENDBRANCH  25  77
BRANCH   9 132
ATOM    132  O   UNL     1     144.624 174.136 186.248  0.00  0.00    -0.384 OA
ATOM    133  H   UNL     1     145.205 173.466 185.849  0.00  0.00    +0.210 HD
ENDBRANCH   9 132
BRANCH  29 134
ATOM    134  O   UNL     1     146.660 172.157 189.671  0.00  0.00    -0.376 OA
BRANCH 134 135
ATOM    135  C   UNL     1     147.205 172.173 190.984  0.00  0.00    +0.037 C 
ATOM    136  H   UNL     1     146.552 171.577 191.629  0.00  0.00    +0.052 HD
ATOM    137  H   UNL     1     148.201 171.722 191.004  0.00  0.00    +0.052 HD
ATOM    138  H   UNL     1     147.240 173.194 191.380  0.00  0.00    +0.052 HD
ENDBRANCH 134 135
ENDBRANCH  29 134
BRANCH   6 139
ATOM    139  O   UNL     1     140.555 176.077 185.819  0.00  0.00    -0.379 OA
BRANCH 139 140
ATOM    140  C   UNL     1     140.606 175.037 184.847  0.00  0.00    +0.037 C 
ATOM    141  H   UNL     1     141.307 175.335 184.062  0.00  0.00    +0.052 HD
ATOM    142  H   UNL     1     140.963 174.109 185.298  0.00  0.00    +0.052 HD
ATOM    143  H   UNL     1     139.623 174.876 184.395  0.00  0.00    +0.052 HD
ENDBRANCH 139 140
ENDBRANCH   6 139
BRANCH  16 144
ATOM    144  O   UNL     1     146.062 175.251 181.724  0.00  0.00    -0.379 OA
BRANCH 144 145
ATOM    145  C   UNL     1     146.755 175.971 180.714  0.00  0.00    +0.037 C 
ATOM    146  H   UNL     1     147.731 175.516 180.514  0.00  0.00    +0.052 HD
ATOM    147  H   UNL     1     146.917 176.992 181.075  0.00  0.00    +0.052 HD
ATOM    148  H   UNL     1     146.166 176.025 179.794  0.00  0.00    +0.052 HD
ENDBRANCH 144 145
ENDBRANCH  16 144
BRANCH   4 149
ATOM    149  O   UNL     1     140.617 175.372 189.238  0.00  0.00    -0.376 OA
BRANCH 149 150
ATOM    150  C   UNL     1     141.712 175.424 190.142  0.00  0.00    +0.037 C 
ATOM    151  H   UNL     1     141.388 175.202 191.163  0.00  0.00    +0.052 HD
ATOM    152  H   UNL     1     142.121 176.436 190.122  0.00  0.00    +0.052 HD
ATOM    153  H   UNL     1     142.502 174.731 189.840  0.00  0.00    +0.052 HD
ENDBRANCH 149 150
ENDBRANCH   4 149
TORSDOF 33
ENDMDL
MODEL 9
REMARK VINA RESULT:      -5.1      3.368      4.497
REMARK  Name = Sphinxolide B_conf1
REMARK  33 active torsions:
REMARK  status: ('A' for Active; 'I' for Inactive)
REMARK    1  A    between atoms: C_1  and  C_2
REMARK    2  A    between atoms: C_5  and  O_67
REMARK    3  A    between atoms: C_7  and  O_65
REMARK    4  A    between atoms: C_8  and  C_64
REMARK    5  A    between atoms: C_10  and  O_63
REMARK    6  A    between atoms: C_17  and  O_61
REMARK    7  A    between atoms: C_19  and  C_60
REMARK    8  A    between atoms: C_26  and  C_37
REMARK    9  A    between atoms: C_27  and  C_36
REMARK   10  A    between atoms: C_30  and  O_34
REMARK   11  A    between atoms: C_32  and  O_33
REMARK   12  A    between atoms: O_34  and  C_35
REMARK   13  A    between atoms: C_37  and  C_38
REMARK   14  A    between atoms: C_37  and  C_39
REMARK   15  A    between atoms: C_39  and  C_40
REMARK   16  A    between atoms: C_39  and  O_58
REMARK   17  A    between atoms: C_40  and  C_41
REMARK   18  A    between atoms: C_40  and  C_42
REMARK   19  A    between atoms: C_42  and  C_43
REMARK   20  A    between atoms: C_43  and  C_44
REMARK   21  A    between atoms: C_44  and  C_46
REMARK   22  A    between atoms: C_46  and  C_47
REMARK   23  A    between atoms: C_46  and  C_48
REMARK   24  A    between atoms: C_48  and  C_49
REMARK   25  A    between atoms: C_48  and  O_56
REMARK   26  A    between atoms: C_49  and  C_50
REMARK   27  A    between atoms: C_51  and  N_52
REMARK   28  A    between atoms: N_52  and  C_53
REMARK   29  A    between atoms: O_56  and  C_57
REMARK   30  A    between atoms: O_58  and  C_59
REMARK   31  A    between atoms: O_61  and  C_62
REMARK   32  A    between atoms: O_65  and  C_66
REMARK   33  A    between atoms: O_67  and  C_68
REMARK                            x       y       z     vdW  Elec       q    Type
REMARK                         _______ _______ _______ _____ _____    ______ ____
ROOT
ATOM      1  C   UNL     1     145.923 162.879 186.719  0.00  0.00    +0.000 C 
ATOM      2  C   UNL     1     147.391 162.537 186.889  0.00  0.00    -0.080 C 
ATOM      3  C   UNL     1     147.986 161.337 186.753  0.00  0.00    -0.059 C 
ATOM      4  C   UNL     1     149.460 161.013 186.957  0.00  0.00    +0.079 C 
ATOM      5  C   UNL     1     150.260 162.165 187.589  0.00  0.00    +0.004 C 
ATOM      6  C   UNL     1     151.754 161.873 187.807  0.00  0.00    +0.067 C 
ATOM      7  C   UNL     1     152.500 163.072 188.496  0.00  0.00    +0.022 C 
ATOM      8  C   UNL     1     152.406 164.391 187.652  0.00  0.00    +0.138 C 
ATOM      9  C   UNL     1     151.483 165.485 188.250  0.00  0.00    +0.114 C 
ATOM     10  C   UNL     1     152.164 166.141 189.426  0.00  0.00    -0.029 C 
ATOM     11  C   UNL     1     153.500 166.283 189.364  0.00  0.00    +0.024 C 
ATOM     12  C   UNL     1     154.298 165.837 188.207  0.00  0.00    +0.332 C 
ATOM     13  O   UNL     1     155.443 166.240 188.050  0.00  0.00    -0.246 OA
ATOM     14  O   UNL     1     153.707 164.964 187.354  0.00  0.00    -0.455 OA
ATOM     15  C   UNL     1     151.302 166.592 190.596  0.00  0.00    -0.002 C 
ATOM     16  C   UNL     1     151.978 167.331 191.775  0.00  0.00    +0.066 C 
ATOM     17  C   UNL     1     150.923 167.872 192.778  0.00  0.00    -0.005 C 
ATOM     18  C   UNL     1     149.971 166.843 193.371  0.00  0.00    -0.070 C 
ATOM     19  C   UNL     1     148.662 166.716 193.076  0.00  0.00    -0.062 C 
ATOM     20  C   UNL     1     147.900 167.486 192.116  0.00  0.00    -0.055 C 
ATOM     21  C   UNL     1     146.608 167.229 191.868  0.00  0.00    +0.023 C 
ATOM     22  C   UNL     1     145.872 168.017 190.860  0.00  0.00    +0.332 C 
ATOM     23  O   UNL     1     146.293 169.015 190.295  0.00  0.00    -0.246 OA
ATOM     24  O   UNL     1     144.677 167.411 190.676  0.00  0.00    -0.457 OA
ATOM     25  C   UNL     1     143.748 167.978 189.706  0.00  0.00    +0.114 C 
ATOM     26  C   UNL     1     143.459 166.861 188.654  0.00  0.00    +0.012 C 
ATOM     27  C   UNL     1     144.779 166.360 188.071  0.00  0.00    -0.079 C 
ATOM     28  C   UNL     1     145.245 166.493 186.818  0.00  0.00    -0.059 C 
ATOM     29  C   UNL     1     146.582 165.960 186.373  0.00  0.00    +0.079 C 
ATOM     30  C   UNL     1     146.492 164.956 185.208  0.00  0.00    +0.004 C 
ATOM     31  C   UNL     1     145.655 163.682 185.416  0.00  0.00    +0.064 C 
ATOM     32  H   UNL     1     145.644 163.502 187.576  0.00  0.00    +0.037 HD
ATOM     33  H   UNL     1     148.008 163.388 187.170  0.00  0.00    +0.057 HD
ATOM     34  H   UNL     1     147.380 160.478 186.477  0.00  0.00    +0.059 HD
ATOM     35  H   UNL     1     149.533 160.133 187.608  0.00  0.00    +0.064 HD
ATOM     36  H   UNL     1     150.176 163.035 186.931  0.00  0.00    +0.032 HD
ATOM     37  H   UNL     1     149.805 162.403 188.558  0.00  0.00    +0.032 HD
ATOM     38  H   UNL     1     152.233 161.669 186.839  0.00  0.00    +0.060 HD
ATOM     39  H   UNL     1     152.007 163.232 189.465  0.00  0.00    +0.036 HD
ATOM     40  H   UNL     1     152.001 164.137 186.665  0.00  0.00    +0.077 HD
ATOM     41  H   UNL     1     151.306 166.255 187.488  0.00  0.00    +0.068 HD
ATOM     42  H   UNL     1     154.086 166.760 190.143  0.00  0.00    +0.069 HD
ATOM     43  H   UNL     1     150.518 167.245 190.190  0.00  0.00    +0.034 HD
ATOM     44  H   UNL     1     150.819 165.689 190.991  0.00  0.00    +0.034 HD
ATOM     45  H   UNL     1     152.533 168.190 191.372  0.00  0.00    +0.060 HD
ATOM     46  H   UNL     1     150.363 168.669 192.277  0.00  0.00    +0.034 HD
ATOM     47  H   UNL     1     151.426 168.376 193.611  0.00  0.00    +0.034 HD
ATOM     48  H   UNL     1     148.097 165.937 193.592  0.00  0.00    +0.062 HD
ATOM     49  H   UNL     1     148.393 168.290 191.575  0.00  0.00    +0.062 HD
ATOM     50  H   UNL     1     146.061 166.440 192.372  0.00  0.00    +0.069 HD
ATOM     51  H   UNL     1     144.247 168.800 189.173  0.00  0.00    +0.074 HD
ATOM     52  H   UNL     1     143.047 165.986 189.169  0.00  0.00    +0.038 HD
ATOM     53  H   UNL     1     145.404 165.824 188.787  0.00  0.00    +0.057 HD
ATOM     54  H   UNL     1     144.672 167.011 186.055  0.00  0.00    +0.059 HD
ATOM     55  H   UNL     1     147.111 165.489 187.209  0.00  0.00    +0.064 HD
ATOM     56  H   UNL     1     147.516 164.669 184.935  0.00  0.00    +0.032 HD
ATOM     57  H   UNL     1     146.103 165.489 184.326  0.00  0.00    +0.032 HD
ATOM     58  H   UNL     1     145.854 163.032 184.554  0.00  0.00    +0.060 HD
ENDROOT
BRANCH   1  59
ATOM     59  C   UNL     1     144.998 161.651 186.800  0.00  0.00    -0.057 C 
ATOM     60  H   UNL     1     144.318 161.608 185.941  0.00  0.00    +0.024 HD
ATOM     61  H   UNL     1     145.580 160.722 186.790  0.00  0.00    +0.024 HD
ATOM     62  H   UNL     1     144.395 161.660 187.714  0.00  0.00    +0.024 HD
ENDBRANCH   1  59
BRANCH  26  63
ATOM     63  C   UNL     1     142.469 167.271 187.562  0.00  0.00    -0.056 C 
ATOM     64  H   UNL     1     142.156 168.314 187.671  0.00  0.00    +0.024 HD
ATOM     65  H   UNL     1     142.904 167.149 186.563  0.00  0.00    +0.024 HD
ATOM     66  H   UNL     1     141.579 166.640 187.570  0.00  0.00    +0.024 HD
ENDBRANCH  26  63
BRANCH  18  67
ATOM     67  C   UNL     1     150.584 165.922 194.399  0.00  0.00    -0.043 C 
ATOM     68  H   UNL     1     150.331 166.249 195.412  0.00  0.00    +0.027 HD
ATOM     69  H   UNL     1     151.675 165.892 194.331  0.00  0.00    +0.027 HD
ATOM     70  H   UNL     1     150.226 164.895 194.259  0.00  0.00    +0.027 HD
ENDBRANCH  18  67
BRANCH   7  71
ATOM     71  C   UNL     1     153.945 162.669 188.828  0.00  0.00    -0.057 C 
ATOM     72  H   UNL     1     154.029 162.295 189.855  0.00  0.00    +0.023 HD
ATOM     73  H   UNL     1     154.315 161.901 188.144  0.00  0.00    +0.023 HD
ATOM     74  H   UNL     1     154.630 163.516 188.718  0.00  0.00    +0.023 HD
ENDBRANCH   7  71
BRANCH  31  75
ATOM     75  O   UNL     1     144.270 164.041 185.326  0.00  0.00    -0.391 OA
ATOM     76  H   UNL     1     143.752 163.220 185.315  0.00  0.00    +0.210 HD
ENDBRANCH  31  75
BRANCH  25  77
ATOM     77  C   UNL     1     142.585 168.613 190.539  0.00  0.00    +0.020 C 
ATOM     78  H   UNL     1     141.661 168.289 190.043  0.00  0.00    +0.036 HD
BRANCH  77  79
ATOM     79  C   UNL     1     142.497 168.001 191.947  0.00  0.00    -0.057 C 
ATOM     80  H   UNL     1     141.494 168.039 192.368  0.00  0.00    +0.023 HD
ATOM     81  H   UNL     1     143.180 168.509 192.637  0.00  0.00    +0.023 HD
ATOM     82  H   UNL     1     142.795 166.945 191.918  0.00  0.00    +0.023 HD
ENDBRANCH  77  79
BRANCH  77  83
ATOM     83  C   UNL     1     142.507 170.175 190.611  0.00  0.00    +0.067 C 
ATOM     84  H   UNL     1     142.618 170.457 191.669  0.00  0.00    +0.060 HD
BRANCH  83  85
ATOM     85  C   UNL     1     141.136 170.762 190.141  0.00  0.00    -0.017 C 
ATOM     86  H   UNL     1     141.296 171.515 189.372  0.00  0.00    +0.032 HD
BRANCH  85  87
ATOM     87  C   UNL     1     140.293 169.653 189.489  0.00  0.00    -0.060 C 
ATOM     88  H   UNL     1     139.246 169.737 189.789  0.00  0.00    +0.023 HD
ATOM     89  H   UNL     1     140.321 169.717 188.396  0.00  0.00    +0.023 HD
ATOM     90  H   UNL     1     140.652 168.660 189.779  0.00  0.00    +0.023 HD
ENDBRANCH  85  87
BRANCH  85  91
ATOM     91  C   UNL     1     140.307 171.440 191.257  0.00  0.00    -0.041 C 
ATOM     92  H   UNL     1     139.703 170.688 191.779  0.00  0.00    +0.027 HD
ATOM     93  H   UNL     1     139.588 172.144 190.816  0.00  0.00    +0.027 HD
BRANCH  91  94
ATOM     94  C   UNL     1     141.171 172.200 192.275  0.00  0.00    +0.007 C 
ATOM     95  H   UNL     1     140.837 171.924 193.282  0.00  0.00    +0.034 HD
ATOM     96  H   UNL     1     142.216 171.912 192.176  0.00  0.00    +0.034 HD
BRANCH  94  97
ATOM     97  C   UNL     1     141.063 173.718 192.153  0.00  0.00    +0.139 C 
ATOM     98  O   UNL     1     139.988 174.305 192.304  0.00  0.00    -0.297 OA
BRANCH  97  99
ATOM     99  C   UNL     1     142.329 174.542 191.909  0.00  0.00    +0.041 C 
ATOM    100  H   UNL     1     142.248 174.855 190.859  0.00  0.00    +0.040 HD
BRANCH  99 101
ATOM    101  C   UNL     1     143.627 173.740 191.968  0.00  0.00    -0.053 C 
ATOM    102  H   UNL     1     144.139 173.842 192.930  0.00  0.00    +0.024 HD
ATOM    103  H   UNL     1     144.317 174.062 191.181  0.00  0.00    +0.024 HD
ATOM    104  H   UNL     1     143.426 172.675 191.814  0.00  0.00    +0.024 HD
ENDBRANCH  99 101
BRANCH  99 105
ATOM    105  C   UNL     1     142.333 175.815 192.784  0.00  0.00    +0.071 C 
ATOM    106  H   UNL     1     141.318 176.231 192.847  0.00  0.00    +0.061 HD
BRANCH 105 107
ATOM    107  C   UNL     1     142.849 175.568 194.219  0.00  0.00    -0.006 C 
ATOM    108  H   UNL     1     143.250 174.556 194.310  0.00  0.00    +0.033 HD
ATOM    109  H   UNL     1     143.661 176.269 194.450  0.00  0.00    +0.033 HD
BRANCH 107 110
ATOM    110  C   UNL     1     141.766 175.699 195.265  0.00  0.00    -0.067 C 
ATOM    111  C   UNL     1     140.910 176.732 195.302  0.00  0.00    -0.005 C 
ATOM    112  H   UNL     1     141.734 174.912 196.011  0.00  0.00    +0.059 HD
ATOM    113  H   UNL     1     140.974 177.495 194.528  0.00  0.00    +0.078 HD
BRANCH 111 114
ATOM    114  N   UNL     1     139.920 176.931 196.252  0.00  0.00    -0.284 N 
ATOM    115  C   UNL     1     138.826 176.074 196.324  0.00  0.00    +0.206 C 
ATOM    116  O   UNL     1     137.892 176.145 197.114  0.00  0.00    -0.279 OA
ATOM    117  H   UNL     1     138.861 175.273 195.564  0.00  0.00    +0.126 HD
BRANCH 114 118
ATOM    118  C   UNL     1     139.987 178.030 197.205  0.00  0.00    +0.007 C 
ATOM    119  H   UNL     1     140.427 178.909 196.722  0.00  0.00    +0.043 HD
ATOM    120  H   UNL     1     138.998 178.308 197.576  0.00  0.00    +0.043 HD
ATOM    121  H   UNL     1     140.601 177.724 198.059  0.00  0.00    +0.043 HD
ENDBRANCH 114 118
ENDBRANCH 111 114
ENDBRANCH 107 110
ENDBRANCH 105 107
BRANCH 105 122
ATOM    122  O   UNL     1     143.216 176.788 192.190  0.00  0.00    -0.379 OA
BRANCH 122 123
ATOM    123  C   UNL     1     142.663 177.423 191.044  0.00  0.00    +0.037 C 
ATOM    124  H   UNL     1     141.594 177.197 191.011  0.00  0.00    +0.052 HD
ATOM    125  H   UNL     1     143.126 177.036 190.132  0.00  0.00    +0.052 HD
ATOM    126  H   UNL     1     142.786 178.508 191.097  0.00  0.00    +0.052 HD
ENDBRANCH 122 123
ENDBRANCH 105 122
ENDBRANCH  99 105
ENDBRANCH  97  99
ENDBRANCH  94  97
ENDBRANCH  91  94
ENDBRANCH  85  91
ENDBRANCH  83  85
BRANCH  83 127
ATOM    127  O   UNL     1     143.586 170.741 189.870  0.00  0.00    -0.379 OA
BRANCH 127 128
ATOM    128  C   UNL     1     143.176 171.689 188.888  0.00  0.00    +0.037 C 
ATOM    129  H   UNL     1     144.019 172.314 188.578  0.00  0.00    +0.052 HD
ATOM    130  H   UNL     1     142.413 172.328 189.339  0.00  0.00    +0.052 HD
ATOM    131  H   UNL     1     142.742 171.184 188.020  0.00  0.00    +0.052 HD
ENDBRANCH 127 128
ENDBRANCH  83 127
ENDBRANCH  77  83
ENDBRANCH  25  77
BRANCH   9 132
ATOM    132  O   UNL     1     150.221 164.952 188.617  0.00  0.00    -0.384 OA
ATOM    133  H   UNL     1     150.233 164.003 188.405  0.00  0.00    +0.210 HD
ENDBRANCH   9 132
BRANCH  29 134
ATOM    134  O   UNL     1     147.392 167.051 185.903  0.00  0.00    -0.376 OA
BRANCH 134 135
ATOM    135  C   UNL     1     148.269 167.585 186.887  0.00  0.00    +0.037 C 
ATOM    136  H   UNL     1     147.940 168.602 187.118  0.00  0.00    +0.052 HD
ATOM    137  H   UNL     1     148.229 166.999 187.810  0.00  0.00    +0.052 HD
ATOM    138  H   UNL     1     149.296 167.634 186.510  0.00  0.00    +0.052 HD
ENDBRANCH 134 135
ENDBRANCH  29 134
BRANCH   6 139
ATOM    139  O   UNL     1     151.841 160.722 188.668  0.00  0.00    -0.379 OA
BRANCH 139 140
ATOM    140  C   UNL     1     152.502 159.620 188.055  0.00  0.00    +0.037 C 
ATOM    141  H   UNL     1     152.428 159.736 186.970  0.00  0.00    +0.052 HD
ATOM    142  H   UNL     1     153.558 159.605 188.332  0.00  0.00    +0.052 HD
ATOM    143  H   UNL     1     152.030 158.675 188.337  0.00  0.00    +0.052 HD
ENDBRANCH 139 140
ENDBRANCH   6 139
BRANCH  16 144
ATOM    144  O   UNL     1     152.904 166.437 192.409  0.00  0.00    -0.379 OA
BRANCH 144 145
ATOM    145  C   UNL     1     153.820 167.077 193.286  0.00  0.00    +0.037 C 
ATOM    146  H   UNL     1     153.712 166.693 194.306  0.00  0.00    +0.052 HD
ATOM    147  H   UNL     1     153.593 168.148 193.294  0.00  0.00    +0.052 HD
ATOM    148  H   UNL     1     154.850 166.951 192.941  0.00  0.00    +0.052 HD
ENDBRANCH 144 145
ENDBRANCH  16 144
BRANCH   4 149
ATOM    149  O   UNL     1     150.041 160.728 185.676  0.00  0.00    -0.376 OA
BRANCH 149 150
ATOM    150  C   UNL     1     149.945 159.360 185.299  0.00  0.00    +0.037 C 
ATOM    151  H   UNL     1     149.349 158.796 186.022  0.00  0.00    +0.052 HD
ATOM    152  H   UNL     1     150.954 158.943 185.282  0.00  0.00    +0.052 HD
ATOM    153  H   UNL     1     149.518 159.259 184.299  0.00  0.00    +0.052 HD
ENDBRANCH 149 150
ENDBRANCH   4 149
TORSDOF 33
ENDMDL
MODEL 10
REMARK VINA RESULT:      -5.0      1.639      2.112
REMARK  Name = Sphinxolide B_conf1
REMARK  33 active torsions:
REMARK  status: ('A' for Active; 'I' for Inactive)
REMARK    1  A    between atoms: C_1  and  C_2
REMARK    2  A    between atoms: C_5  and  O_67
REMARK    3  A    between atoms: C_7  and  O_65
REMARK    4  A    between atoms: C_8  and  C_64
REMARK    5  A    between atoms: C_10  and  O_63
REMARK    6  A    between atoms: C_17  and  O_61
REMARK    7  A    between atoms: C_19  and  C_60
REMARK    8  A    between atoms: C_26  and  C_37
REMARK    9  A    between atoms: C_27  and  C_36
REMARK   10  A    between atoms: C_30  and  O_34
REMARK   11  A    between atoms: C_32  and  O_33
REMARK   12  A    between atoms: O_34  and  C_35
REMARK   13  A    between atoms: C_37  and  C_38
REMARK   14  A    between atoms: C_37  and  C_39
REMARK   15  A    between atoms: C_39  and  C_40
REMARK   16  A    between atoms: C_39  and  O_58
REMARK   17  A    between atoms: C_40  and  C_41
REMARK   18  A    between atoms: C_40  and  C_42
REMARK   19  A    between atoms: C_42  and  C_43
REMARK   20  A    between atoms: C_43  and  C_44
REMARK   21  A    between atoms: C_44  and  C_46
REMARK   22  A    between atoms: C_46  and  C_47
REMARK   23  A    between atoms: C_46  and  C_48
REMARK   24  A    between atoms: C_48  and  C_49
REMARK   25  A    between atoms: C_48  and  O_56
REMARK   26  A    between atoms: C_49  and  C_50
REMARK   27  A    between atoms: C_51  and  N_52
REMARK   28  A    between atoms: N_52  and  C_53
REMARK   29  A    between atoms: O_56  and  C_57
REMARK   30  A    between atoms: O_58  and  C_59
REMARK   31  A    between atoms: O_61  and  C_62
REMARK   32  A    between atoms: O_65  and  C_66
REMARK   33  A    between atoms: O_67  and  C_68
REMARK                            x       y       z     vdW  Elec       q    Type
REMARK                         _______ _______ _______ _____ _____    ______ ____
ROOT
ATOM      1  C   UNL     1     145.913 162.509 186.856  0.00  0.00    +0.000 C 
ATOM      2  C   UNL     1     147.411 162.309 186.983  0.00  0.00    -0.080 C 
ATOM      3  C   UNL     1     148.118 161.182 186.781  0.00  0.00    -0.059 C 
ATOM      4  C   UNL     1     149.622 160.998 186.942  0.00  0.00    +0.079 C 
ATOM      5  C   UNL     1     150.319 162.195 187.611  0.00  0.00    +0.004 C 
ATOM      6  C   UNL     1     151.838 162.045 187.787  0.00  0.00    +0.067 C 
ATOM      7  C   UNL     1     152.478 163.282 188.515  0.00  0.00    +0.022 C 
ATOM      8  C   UNL     1     152.234 164.620 187.735  0.00  0.00    +0.138 C 
ATOM      9  C   UNL     1     151.222 165.589 188.399  0.00  0.00    +0.114 C 
ATOM     10  C   UNL     1     151.862 166.258 189.591  0.00  0.00    -0.029 C 
ATOM     11  C   UNL     1     153.175 166.536 189.511  0.00  0.00    +0.024 C 
ATOM     12  C   UNL     1     153.986 166.222 188.319  0.00  0.00    +0.332 C 
ATOM     13  O   UNL     1     155.082 166.744 188.159  0.00  0.00    -0.246 OA
ATOM     14  O   UNL     1     153.465 165.333 187.439  0.00  0.00    -0.455 OA
ATOM     15  C   UNL     1     150.987 166.569 190.796  0.00  0.00    -0.002 C 
ATOM     16  C   UNL     1     151.614 167.320 191.995  0.00  0.00    +0.066 C 
ATOM     17  C   UNL     1     150.534 167.709 193.041  0.00  0.00    -0.005 C 
ATOM     18  C   UNL     1     149.702 166.566 193.605  0.00  0.00    -0.070 C 
ATOM     19  C   UNL     1     148.406 166.322 193.329  0.00  0.00    -0.062 C 
ATOM     20  C   UNL     1     147.550 167.052 192.420  0.00  0.00    -0.055 C 
ATOM     21  C   UNL     1     146.283 166.678 192.184  0.00  0.00    +0.023 C 
ATOM     22  C   UNL     1     145.450 167.432 191.227  0.00  0.00    +0.332 C 
ATOM     23  O   UNL     1     145.757 168.491 190.701  0.00  0.00    -0.246 OA
ATOM     24  O   UNL     1     144.317 166.718 191.038  0.00  0.00    -0.457 OA
ATOM     25  C   UNL     1     143.314 167.231 190.114  0.00  0.00    +0.114 C 
ATOM     26  C   UNL     1     143.112 166.138 189.017  0.00  0.00    +0.012 C 
ATOM     27  C   UNL     1     144.461 165.797 188.388  0.00  0.00    -0.079 C 
ATOM     28  C   UNL     1     144.883 166.030 187.133  0.00  0.00    -0.059 C 
ATOM     29  C   UNL     1     146.255 165.653 186.639  0.00  0.00    +0.079 C 
ATOM     30  C   UNL     1     146.238 164.697 185.432  0.00  0.00    +0.004 C 
ATOM     31  C   UNL     1     145.536 163.338 185.597  0.00  0.00    +0.064 C 
ATOM     32  H   UNL     1     145.594 163.064 187.747  0.00  0.00    +0.037 HD
ATOM     33  H   UNL     1     147.947 163.204 187.291  0.00  0.00    +0.057 HD
ATOM     34  H   UNL     1     147.595 160.279 186.478  0.00  0.00    +0.059 HD
ATOM     35  H   UNL     1     149.796 160.102 187.551  0.00  0.00    +0.064 HD
ATOM     36  H   UNL     1     150.134 163.080 186.995  0.00  0.00    +0.032 HD
ATOM     37  H   UNL     1     149.865 162.345 188.598  0.00  0.00    +0.032 HD
ATOM     38  H   UNL     1     152.312 161.932 186.802  0.00  0.00    +0.060 HD
ATOM     39  H   UNL     1     151.995 163.349 189.501  0.00  0.00    +0.036 HD
ATOM     40  H   UNL     1     151.833 164.369 186.745  0.00  0.00    +0.077 HD
ATOM     41  H   UNL     1     150.952 166.370 187.677  0.00  0.00    +0.068 HD
ATOM     42  H   UNL     1     153.730 167.034 190.298  0.00  0.00    +0.069 HD
ATOM     43  H   UNL     1     150.133 167.158 190.435  0.00  0.00    +0.034 HD
ATOM     44  H   UNL     1     150.605 165.606 191.159  0.00  0.00    +0.034 HD
ATOM     45  H   UNL     1     152.072 168.247 191.621  0.00  0.00    +0.060 HD
ATOM     46  H   UNL     1     149.887 168.467 192.587  0.00  0.00    +0.034 HD
ATOM     47  H   UNL     1     151.004 168.224 193.887  0.00  0.00    +0.034 HD
ATOM     48  H   UNL     1     147.933 165.468 193.820  0.00  0.00    +0.062 HD
ATOM     49  H   UNL     1     147.948 167.924 191.907  0.00  0.00    +0.062 HD
ATOM     50  H   UNL     1     145.830 165.818 192.663  0.00  0.00    +0.069 HD
ATOM     51  H   UNL     1     143.716 168.121 189.609  0.00  0.00    +0.074 HD
ATOM     52  H   UNL     1     142.801 165.204 189.500  0.00  0.00    +0.038 HD
ATOM     53  H   UNL     1     145.154 165.295 189.066  0.00  0.00    +0.057 HD
ATOM     54  H   UNL     1     144.244 166.521 186.405  0.00  0.00    +0.059 HD
ATOM     55  H   UNL     1     146.848 165.201 187.442  0.00  0.00    +0.064 HD
ATOM     56  H   UNL     1     147.279 164.526 185.127  0.00  0.00    +0.032 HD
ATOM     57  H   UNL     1     145.777 165.226 184.582  0.00  0.00    +0.032 HD
ATOM     58  H   UNL     1     145.778 162.748 184.702  0.00  0.00    +0.060 HD
ENDROOT
BRANCH   1  59
ATOM     59  C   UNL     1     145.116 161.193 186.900  0.00  0.00    -0.057 C 
ATOM     60  H   UNL     1     145.463 160.493 186.130  0.00  0.00    +0.024 HD
ATOM     61  H   UNL     1     145.244 160.690 187.865  0.00  0.00    +0.024 HD
ATOM     62  H   UNL     1     144.045 161.364 186.749  0.00  0.00    +0.024 HD
ENDBRANCH   1  59
BRANCH  26  63
ATOM     63  C   UNL     1     142.061 166.494 187.964  0.00  0.00    -0.056 C 
ATOM     64  H   UNL     1     141.942 165.695 187.226  0.00  0.00    +0.024 HD
ATOM     65  H   UNL     1     141.083 166.681 188.424  0.00  0.00    +0.024 HD
ATOM     66  H   UNL     1     142.316 167.415 187.440  0.00  0.00    +0.024 HD
ENDBRANCH  26  63
BRANCH  18  67
ATOM     67  C   UNL     1     150.427 165.666 194.578  0.00  0.00    -0.043 C 
ATOM     68  H   UNL     1     150.598 164.679 194.140  0.00  0.00    +0.027 HD
ATOM     69  H   UNL     1     149.863 165.516 195.503  0.00  0.00    +0.027 HD
ATOM     70  H   UNL     1     151.393 166.101 194.859  0.00  0.00    +0.027 HD
ENDBRANCH  18  67
BRANCH   7  71
ATOM     71  C   UNL     1     153.964 163.011 188.802  0.00  0.00    -0.057 C 
ATOM     72  H   UNL     1     154.367 162.247 188.129  0.00  0.00    +0.023 HD
ATOM     73  H   UNL     1     154.563 163.919 188.702  0.00  0.00    +0.023 HD
ATOM     74  H   UNL     1     154.114 162.671 189.832  0.00  0.00    +0.023 HD
ENDBRANCH   7  71
BRANCH  31  75
ATOM     75  O   UNL     1     144.121 163.560 185.549  0.00  0.00    -0.391 OA
ATOM     76  H   UNL     1     143.949 164.448 185.904  0.00  0.00    +0.210 HD
ENDBRANCH  31  75
BRANCH  25  77
ATOM     77  C   UNL     1     142.114 167.710 190.997  0.00  0.00    +0.020 C 
ATOM     78  H   UNL     1     141.263 167.085 190.694  0.00  0.00    +0.036 HD
BRANCH  77  79
ATOM     79  C   UNL     1     142.330 167.368 192.481  0.00  0.00    -0.057 C 
ATOM     80  H   UNL     1     142.037 168.173 193.152  0.00  0.00    +0.023 HD
ATOM     81  H   UNL     1     143.380 167.123 192.675  0.00  0.00    +0.023 HD
ATOM     82  H   UNL     1     141.737 166.487 192.755  0.00  0.00    +0.023 HD
ENDBRANCH  77  79
BRANCH  77  83
ATOM     83  C   UNL     1     141.635 169.192 190.836  0.00  0.00    +0.067 C 
ATOM     84  H   UNL     1     140.844 169.359 191.583  0.00  0.00    +0.060 HD
BRANCH  83  85
ATOM     85  C   UNL     1     140.997 169.502 189.442  0.00  0.00    -0.017 C 
ATOM     86  H   UNL     1     140.971 168.600 188.835  0.00  0.00    +0.032 HD
BRANCH  85  87
ATOM     87  C   UNL     1     139.535 169.941 189.626  0.00  0.00    -0.060 C 
ATOM     88  H   UNL     1     139.285 170.013 190.687  0.00  0.00    +0.023 HD
ATOM     89  H   UNL     1     139.352 170.925 189.184  0.00  0.00    +0.023 HD
ATOM     90  H   UNL     1     138.846 169.229 189.162  0.00  0.00    +0.023 HD
ENDBRANCH  85  87
BRANCH  85  91
ATOM     91  C   UNL     1     141.748 170.570 188.612  0.00  0.00    -0.041 C 
ATOM     92  H   UNL     1     142.513 171.051 189.234  0.00  0.00    +0.027 HD
ATOM     93  H   UNL     1     141.058 171.371 188.318  0.00  0.00    +0.027 HD
BRANCH  91  94
ATOM     94  C   UNL     1     142.403 170.001 187.345  0.00  0.00    +0.007 C 
ATOM     95  H   UNL     1     143.040 169.159 187.636  0.00  0.00    +0.034 HD
ATOM     96  H   UNL     1     141.643 169.627 186.659  0.00  0.00    +0.034 HD
BRANCH  94  97
ATOM     97  C   UNL     1     143.279 171.009 186.605  0.00  0.00    +0.139 C 
ATOM     98  O   UNL     1     142.807 171.786 185.770  0.00  0.00    -0.297 OA
BRANCH  97  99
ATOM     99  C   UNL     1     144.764 171.112 186.957  0.00  0.00    +0.041 C 
ATOM    100  H   UNL     1     145.249 171.363 186.003  0.00  0.00    +0.040 HD
BRANCH  99 101
ATOM    101  C   UNL     1     145.408 169.792 187.374  0.00  0.00    -0.053 C 
ATOM    102  H   UNL     1     144.834 168.922 187.041  0.00  0.00    +0.024 HD
ATOM    103  H   UNL     1     145.506 169.736 188.463  0.00  0.00    +0.024 HD
ATOM    104  H   UNL     1     146.413 169.705 186.948  0.00  0.00    +0.024 HD
ENDBRANCH  99 101
BRANCH  99 105
ATOM    105  C   UNL     1     145.018 172.277 187.939  0.00  0.00    +0.071 C 
ATOM    106  H   UNL     1     144.185 172.993 187.894  0.00  0.00    +0.061 HD
BRANCH 105 107
ATOM    107  C   UNL     1     145.187 171.816 189.403  0.00  0.00    -0.006 C 
ATOM    108  H   UNL     1     144.604 172.453 190.072  0.00  0.00    +0.033 HD
ATOM    109  H   UNL     1     144.816 170.790 189.516  0.00  0.00    +0.033 HD
BRANCH 107 110
ATOM    110  C   UNL     1     146.619 171.883 189.880  0.00  0.00    -0.067 C 
ATOM    111  C   UNL     1     146.950 172.050 191.170  0.00  0.00    -0.005 C 
ATOM    112  H   UNL     1     147.377 171.812 189.107  0.00  0.00    +0.059 HD
ATOM    113  H   UNL     1     146.156 172.109 191.912  0.00  0.00    +0.078 HD
BRANCH 111 114
ATOM    114  N   UNL     1     148.239 172.156 191.669  0.00  0.00    -0.284 N 
ATOM    115  C   UNL     1     149.131 171.094 191.556  0.00  0.00    +0.206 C 
ATOM    116  O   UNL     1     150.289 171.066 191.956  0.00  0.00    -0.279 OA
ATOM    117  H   UNL     1     148.688 170.217 191.050  0.00  0.00    +0.126 HD
BRANCH 114 118
ATOM    118  C   UNL     1     148.707 173.371 192.320  0.00  0.00    +0.007 C 
ATOM    119  H   UNL     1     149.796 173.334 192.431  0.00  0.00    +0.043 HD
ATOM    120  H   UNL     1     148.458 174.265 191.741  0.00  0.00    +0.043 HD
ATOM    121  H   UNL     1     148.232 173.455 193.303  0.00  0.00    +0.043 HD
ENDBRANCH 114 118
ENDBRANCH 111 114
ENDBRANCH 107 110
ENDBRANCH 105 107
BRANCH 105 122
ATOM    122  O   UNL     1     146.243 172.941 187.571  0.00  0.00    -0.379 OA
BRANCH 122 123
ATOM    123  C   UNL     1     146.082 173.870 186.505  0.00  0.00    +0.037 C 
ATOM    124  H   UNL     1     146.904 173.725 185.800  0.00  0.00    +0.052 HD
ATOM    125  H   UNL     1     146.128 174.895 186.883  0.00  0.00    +0.052 HD
ATOM    126  H   UNL     1     145.139 173.704 185.979  0.00  0.00    +0.052 HD
ENDBRANCH 122 123
ENDBRANCH 105 122
ENDBRANCH  99 105
ENDBRANCH  97  99
ENDBRANCH  94  97
ENDBRANCH  91  94
ENDBRANCH  85  91
ENDBRANCH  83  85
BRANCH  83 127
ATOM    127  O   UNL     1     142.719 170.076 191.110  0.00  0.00    -0.379 OA
BRANCH 127 128
ATOM    128  C   UNL     1     142.332 171.274 191.778  0.00  0.00    +0.037 C 
ATOM    129  H   UNL     1     141.613 171.057 192.574  0.00  0.00    +0.052 HD
ATOM    130  H   UNL     1     141.855 171.927 191.043  0.00  0.00    +0.052 HD
ATOM    131  H   UNL     1     143.206 171.788 192.188  0.00  0.00    +0.052 HD
ENDBRANCH 127 128
ENDBRANCH  83 127
ENDBRANCH  77  83
ENDBRANCH  25  77
BRANCH   9 132
ATOM    132  O   UNL     1     150.028 164.917 188.766  0.00  0.00    -0.384 OA
ATOM    133  H   UNL     1     149.533 164.734 187.949  0.00  0.00    +0.210 HD
ENDBRANCH   9 132
BRANCH  29 134
ATOM    134  O   UNL     1     146.942 166.839 186.204  0.00  0.00    -0.376 OA
BRANCH 134 135
ATOM    135  C   UNL     1     146.745 167.149 184.831  0.00  0.00    +0.037 C 
ATOM    136  H   UNL     1     147.563 166.698 184.261  0.00  0.00    +0.052 HD
ATOM    137  H   UNL     1     145.805 166.729 184.462  0.00  0.00    +0.052 HD
ATOM    138  H   UNL     1     146.769 168.232 184.667  0.00  0.00    +0.052 HD
ENDBRANCH 134 135
ENDBRANCH  29 134
BRANCH   6 139
ATOM    139  O   UNL     1     152.059 160.872 188.593  0.00  0.00    -0.379 OA
BRANCH 139 140
ATOM    140  C   UNL     1     152.789 159.859 187.909  0.00  0.00    +0.037 C 
ATOM    141  H   UNL     1     153.236 160.303 187.015  0.00  0.00    +0.052 HD
ATOM    142  H   UNL     1     153.590 159.471 188.542  0.00  0.00    +0.052 HD
ATOM    143  H   UNL     1     152.130 159.043 187.601  0.00  0.00    +0.052 HD
ENDBRANCH 139 140
ENDBRANCH   6 139
BRANCH  16 144
ATOM    144  O   UNL     1     152.638 166.496 192.570  0.00  0.00    -0.379 OA
BRANCH 144 145
ATOM    145  C   UNL     1     153.649 167.222 193.256  0.00  0.00    +0.037 C 
ATOM    146  H   UNL     1     153.929 168.120 192.695  0.00  0.00    +0.052 HD
ATOM    147  H   UNL     1     154.532 166.579 193.340  0.00  0.00    +0.052 HD
ATOM    148  H   UNL     1     153.326 167.490 194.265  0.00  0.00    +0.052 HD
ENDBRANCH 144 145
ENDBRANCH  16 144
BRANCH   4 149
ATOM    149  O   UNL     1     150.198 160.828 185.639  0.00  0.00    -0.376 OA
BRANCH 149 150
ATOM    150  C   UNL     1     149.914 161.897 184.747  0.00  0.00    +0.037 C 
ATOM    151  H   UNL     1     150.630 161.918 183.919  0.00  0.00    +0.052 HD
ATOM    152  H   UNL     1     150.001 162.833 185.302  0.00  0.00    +0.052 HD
ATOM    153  H   UNL     1     148.894 161.824 184.360  0.00  0.00    +0.052 HD
ENDBRANCH 149 150
ENDBRANCH   4 149
TORSDOF 33
ENDMDL
