MODEL 1
REMARK VINA RESULT:      -6.2      0.000      0.000
REMARK  Name = Swinholide A_conf2
REMARK  40 active torsions:
REMARK  status: ('A' for Active; 'I' for Inactive)
REMARK    1  A    between atoms: C_1  and  C_2
REMARK    2  A    between atoms: C_4  and  C_10
REMARK    3  A    between atoms: C_6  and  O_8
REMARK    4  A    between atoms: O_8  and  C_9
REMARK    5  A    between atoms: C_10  and  C_11
REMARK    6  A    between atoms: C_11  and  C_12
REMARK    7  A    between atoms: C_12  and  C_13
REMARK    8  A    between atoms: C_12  and  C_98
REMARK    9  A    between atoms: C_13  and  O_14
REMARK   10  A    between atoms: C_13  and  C_15
REMARK   11  A    between atoms: C_15  and  C_16
REMARK   12  A    between atoms: C_15  and  C_97
REMARK   13  A    between atoms: C_22  and  C_96
REMARK   14  A    between atoms: C_25  and  O_95
REMARK   15  A    between atoms: C_31  and  O_90
REMARK   16  A    between atoms: C_32  and  C_89
REMARK   17  A    between atoms: C_33  and  O_88
REMARK   18  A    between atoms: C_35  and  O_87
REMARK   19  A    between atoms: C_36  and  C_86
REMARK   20  A    between atoms: C_37  and  C_69
REMARK   21  A    between atoms: C_43  and  C_68
REMARK   22  A    between atoms: C_46  and  O_67
REMARK   23  A    between atoms: C_52  and  O_62
REMARK   24  A    between atoms: C_53  and  C_61
REMARK   25  A    between atoms: C_54  and  O_60
REMARK   26  A    between atoms: C_56  and  O_59
REMARK   27  A    between atoms: C_57  and  C_58
REMARK   28  A    between atoms: O_62  and  C_63
REMARK   29  A    between atoms: C_69  and  C_70
REMARK   30  A    between atoms: C_69  and  C_85
REMARK   31  A    between atoms: C_70  and  O_71
REMARK   32  A    between atoms: C_70  and  C_72
REMARK   33  A    between atoms: C_72  and  C_73
REMARK   34  A    between atoms: C_72  and  C_84
REMARK   35  A    between atoms: C_73  and  C_74
REMARK   36  A    between atoms: C_74  and  C_75
REMARK   37  A    between atoms: C_77  and  C_83
REMARK   38  A    between atoms: C_79  and  O_81
REMARK   39  A    between atoms: O_81  and  C_82
REMARK   40  A    between atoms: O_90  and  C_91
REMARK                            x       y       z     vdW  Elec       q    Type
REMARK                         _______ _______ _______ _____ _____    ______ ____
ROOT
ATOM      1  C   UNL     1     142.280 167.820 190.429  0.00  0.00    +0.113 C 
ATOM      2  O   UNL     1     141.832 169.029 191.097  0.00  0.00    -0.458 OA
ATOM      3  C   UNL     1     140.648 169.536 190.678  0.00  0.00    +0.332 C 
ATOM      4  O   UNL     1     139.907 169.070 189.831  0.00  0.00    -0.246 OA
ATOM      5  C   UNL     1     140.400 170.806 191.395  0.00  0.00    +0.023 C 
ATOM      6  C   UNL     1     139.234 171.445 191.211  0.00  0.00    -0.052 C 
ATOM      7  C   UNL     1     138.862 172.740 191.769  0.00  0.00    -0.054 C 
ATOM      8  C   UNL     1     139.304 173.166 192.969  0.00  0.00    -0.079 C 
ATOM      9  C   UNL     1     138.922 174.453 193.656  0.00  0.00    -0.008 C 
ATOM     10  C   UNL     1     140.085 175.452 193.823  0.00  0.00    +0.061 C 
ATOM     11  C   UNL     1     140.513 176.083 192.489  0.00  0.00    +0.003 C 
ATOM     12  C   UNL     1     141.513 177.251 192.626  0.00  0.00    +0.080 C 
ATOM     13  O   UNL     1     142.319 177.370 191.432  0.00  0.00    -0.369 OA
ATOM     14  C   UNL     1     141.652 178.026 190.337  0.00  0.00    +0.065 C 
ATOM     15  C   UNL     1     142.594 177.934 189.124  0.00  0.00    +0.000 C 
ATOM     16  C   UNL     1     142.112 178.690 187.865  0.00  0.00    +0.066 C 
ATOM     17  C   UNL     1     142.946 178.356 186.581  0.00  0.00    +0.009 C 
ATOM     18  C   UNL     1     142.983 176.848 186.227  0.00  0.00    +0.063 C 
ATOM     19  C   UNL     1     143.740 176.540 184.910  0.00  0.00    -0.000 C 
ATOM     20  C   UNL     1     143.572 175.057 184.545  0.00  0.00    +0.064 C 
ATOM     21  C   UNL     1     144.683 174.500 183.616  0.00  0.00    +0.020 C 
ATOM     22  C   UNL     1     144.716 172.939 183.590  0.00  0.00    +0.113 C 
ATOM     23  O   UNL     1     143.416 172.553 183.063  0.00  0.00    -0.458 OA
ATOM     24  C   UNL     1     143.319 171.575 182.138  0.00  0.00    +0.332 C 
ATOM     25  O   UNL     1     144.219 170.819 181.771  0.00  0.00    -0.246 OA
ATOM     26  C   UNL     1     141.947 171.496 181.592  0.00  0.00    +0.023 C 
ATOM     27  C   UNL     1     140.910 172.215 182.071  0.00  0.00    -0.052 C 
ATOM     28  C   UNL     1     139.523 172.196 181.615  0.00  0.00    -0.054 C 
ATOM     29  C   UNL     1     138.620 172.923 182.307  0.00  0.00    -0.079 C 
ATOM     30  C   UNL     1     137.135 173.007 182.098  0.00  0.00    -0.008 C 
ATOM     31  C   UNL     1     136.269 172.847 183.365  0.00  0.00    +0.061 C 
ATOM     32  C   UNL     1     136.339 171.485 184.086  0.00  0.00    +0.003 C 
ATOM     33  C   UNL     1     137.414 171.210 185.157  0.00  0.00    +0.080 C 
ATOM     34  O   UNL     1     138.699 171.066 184.545  0.00  0.00    -0.369 OA
ATOM     35  C   UNL     1     139.800 170.962 185.454  0.00  0.00    +0.065 C 
ATOM     36  C   UNL     1     139.798 169.663 186.279  0.00  0.00    +0.000 C 
ATOM     37  C   UNL     1     140.071 168.422 185.396  0.00  0.00    +0.066 C 
ATOM     38  C   UNL     1     140.685 167.263 186.233  0.00  0.00    +0.009 C 
ATOM     39  C   UNL     1     142.224 167.407 186.420  0.00  0.00    +0.063 C 
ATOM     40  C   UNL     1     142.757 166.528 187.583  0.00  0.00    -0.000 C 
ATOM     41  C   UNL     1     143.862 167.118 188.470  0.00  0.00    +0.064 C 
ATOM     42  C   UNL     1     143.422 168.234 189.449  0.00  0.00    +0.020 C 
ATOM     43  C   UNL     1     139.893 172.232 186.319  0.00  0.00    -0.008 C 
ATOM     44  C   UNL     1     138.557 172.695 186.816  0.00  0.00    -0.083 C 
ATOM     45  C   UNL     1     137.432 172.211 186.283  0.00  0.00    -0.059 C 
ATOM     46  C   UNL     1     141.322 179.480 190.709  0.00  0.00    -0.008 C 
ATOM     47  C   UNL     1     140.739 179.581 192.085  0.00  0.00    -0.083 C 
ATOM     48  C   UNL     1     140.848 178.568 192.953  0.00  0.00    -0.059 C 
ATOM     49  H   UNL     1     141.478 167.444 189.796  0.00  0.00    +0.074 HD
ATOM     50  H   UNL     1     141.195 171.187 192.019  0.00  0.00    +0.069 HD
ATOM     51  H   UNL     1     138.493 171.003 190.545  0.00  0.00    +0.062 HD
ATOM     52  H   UNL     1     139.961 172.526 193.556  0.00  0.00    +0.058 HD
ATOM     53  H   UNL     1     138.536 174.186 194.648  0.00  0.00    +0.033 HD
ATOM     54  H   UNL     1     138.083 174.955 193.167  0.00  0.00    +0.033 HD
ATOM     55  H   UNL     1     140.943 174.944 194.271  0.00  0.00    +0.060 HD
ATOM     56  H   UNL     1     140.952 175.307 191.851  0.00  0.00    +0.032 HD
ATOM     57  H   UNL     1     139.626 176.441 191.952  0.00  0.00    +0.032 HD
ATOM     58  H   UNL     1     142.227 177.021 193.423  0.00  0.00    +0.064 HD
ATOM     59  H   UNL     1     140.733 177.472 190.107  0.00  0.00    +0.060 HD
ATOM     60  H   UNL     1     143.593 178.291 189.401  0.00  0.00    +0.032 HD
ATOM     61  H   UNL     1     142.711 176.865 188.909  0.00  0.00    +0.032 HD
ATOM     62  H   UNL     1     142.225 179.766 188.064  0.00  0.00    +0.060 HD
ATOM     63  H   UNL     1     142.455 178.863 185.744  0.00  0.00    +0.035 HD
ATOM     64  H   UNL     1     143.503 176.297 187.021  0.00  0.00    +0.060 HD
ATOM     65  H   UNL     1     144.804 176.778 185.036  0.00  0.00    +0.032 HD
ATOM     66  H   UNL     1     143.342 177.167 184.106  0.00  0.00    +0.032 HD
ATOM     67  H   UNL     1     143.579 174.498 185.480  0.00  0.00    +0.060 HD
ATOM     68  H   UNL     1     145.637 174.866 184.007  0.00  0.00    +0.036 HD
ATOM     69  H   UNL     1     145.504 172.614 182.899  0.00  0.00    +0.074 HD
ATOM     70  H   UNL     1     141.832 170.784 180.783  0.00  0.00    +0.069 HD
ATOM     71  H   UNL     1     141.095 172.869 182.924  0.00  0.00    +0.062 HD
ATOM     72  H   UNL     1     138.971 173.502 183.163  0.00  0.00    +0.058 HD
ATOM     73  H   UNL     1     136.933 173.998 181.669  0.00  0.00    +0.033 HD
ATOM     74  H   UNL     1     136.791 172.273 181.368  0.00  0.00    +0.033 HD
ATOM     75  H   UNL     1     135.238 172.920 182.996  0.00  0.00    +0.060 HD
ATOM     76  H   UNL     1     136.402 170.698 183.324  0.00  0.00    +0.032 HD
ATOM     77  H   UNL     1     135.375 171.350 184.586  0.00  0.00    +0.032 HD
ATOM     78  H   UNL     1     137.152 170.237 185.586  0.00  0.00    +0.064 HD
ATOM     79  H   UNL     1     140.706 170.952 184.834  0.00  0.00    +0.060 HD
ATOM     80  H   UNL     1     138.846 169.536 186.807  0.00  0.00    +0.032 HD
ATOM     81  H   UNL     1     140.564 169.761 187.057  0.00  0.00    +0.032 HD
ATOM     82  H   UNL     1     140.763 168.672 184.581  0.00  0.00    +0.060 HD
ATOM     83  H   UNL     1     140.203 167.291 187.219  0.00  0.00    +0.035 HD
ATOM     84  H   UNL     1     142.711 167.071 185.494  0.00  0.00    +0.060 HD
ATOM     85  H   UNL     1     143.155 165.612 187.118  0.00  0.00    +0.032 HD
ATOM     86  H   UNL     1     141.930 166.174 188.202  0.00  0.00    +0.032 HD
ATOM     87  H   UNL     1     144.313 166.312 189.056  0.00  0.00    +0.060 HD
ATOM     88  H   UNL     1     143.016 169.070 188.861  0.00  0.00    +0.036 HD
ATOM     89  H   UNL     1     140.571 172.074 187.166  0.00  0.00    +0.033 HD
ATOM     90  H   UNL     1     140.305 173.050 185.715  0.00  0.00    +0.033 HD
ATOM     91  H   UNL     1     138.529 173.460 187.584  0.00  0.00    +0.057 HD
ATOM     92  H   UNL     1     136.468 172.562 186.654  0.00  0.00    +0.059 HD
ATOM     93  H   UNL     1     142.222 180.102 190.673  0.00  0.00    +0.033 HD
ATOM     94  H   UNL     1     140.608 179.893 189.987  0.00  0.00    +0.033 HD
ATOM     95  H   UNL     1     140.249 180.502 192.370  0.00  0.00    +0.057 HD
ATOM     96  H   UNL     1     140.420 178.672 193.947  0.00  0.00    +0.059 HD
ENDROOT
BRANCH  28  97
ATOM     97  C   UNL     1     139.190 171.349 180.413  0.00  0.00    -0.040 C 
ATOM     98  H   UNL     1     138.107 171.315 180.260  0.00  0.00    +0.028 HD
ATOM     99  H   UNL     1     139.508 170.307 180.509  0.00  0.00    +0.028 HD
ATOM    100  H   UNL     1     139.663 171.752 179.509  0.00  0.00    +0.028 HD
ENDBRANCH  28  97
BRANCH  21 101
ATOM    101  C   UNL     1     144.576 175.041 182.184  0.00  0.00    -0.057 C 
ATOM    102  H   UNL     1     143.809 174.509 181.616  0.00  0.00    +0.023 HD
ATOM    103  H   UNL     1     144.302 176.098 182.199  0.00  0.00    +0.023 HD
ATOM    104  H   UNL     1     145.517 174.957 181.633  0.00  0.00    +0.023 HD
ENDBRANCH  21 101
BRANCH  42 105
ATOM    105  C   UNL     1     144.648 168.856 190.139  0.00  0.00    -0.057 C 
ATOM    106  H   UNL     1     144.757 168.497 191.164  0.00  0.00    +0.023 HD
ATOM    107  H   UNL     1     144.610 169.948 190.137  0.00  0.00    +0.023 HD
ATOM    108  H   UNL     1     145.560 168.563 189.613  0.00  0.00    +0.023 HD
ENDBRANCH  42 105
BRANCH  17 109
ATOM    109  C   UNL     1     144.359 178.940 186.690  0.00  0.00    -0.058 C 
ATOM    110  H   UNL     1     144.384 179.797 187.362  0.00  0.00    +0.023 HD
ATOM    111  H   UNL     1     144.702 179.294 185.712  0.00  0.00    +0.023 HD
ATOM    112  H   UNL     1     145.076 178.201 187.046  0.00  0.00    +0.023 HD
ENDBRANCH  17 109
BRANCH  38 113
ATOM    113  C   UNL     1     140.391 165.872 185.643  0.00  0.00    -0.058 C 
ATOM    114  H   UNL     1     140.025 165.168 186.400  0.00  0.00    +0.023 HD
ATOM    115  H   UNL     1     139.631 165.939 184.848  0.00  0.00    +0.023 HD
ATOM    116  H   UNL     1     141.289 165.428 185.205  0.00  0.00    +0.023 HD
ENDBRANCH  38 113
BRANCH   7 117
ATOM    117  C   UNL     1     137.915 173.538 190.910  0.00  0.00    -0.040 C 
ATOM    118  H   UNL     1     138.446 174.360 190.423  0.00  0.00    +0.028 HD
ATOM    119  H   UNL     1     137.103 173.965 191.504  0.00  0.00    +0.028 HD
ATOM    120  H   UNL     1     137.443 172.920 190.137  0.00  0.00    +0.028 HD
ENDBRANCH   7 117
BRANCH   1 121
ATOM    121  C   UNL     1     142.571 166.702 191.473  0.00  0.00    +0.020 C 
ATOM    122  H   UNL     1     141.739 166.659 192.183  0.00  0.00    +0.036 HD
BRANCH 121 123
ATOM    123  C   UNL     1     142.685 165.294 190.860  0.00  0.00    -0.057 C 
ATOM    124  H   UNL     1     143.563 164.751 191.220  0.00  0.00    +0.023 HD
ATOM    125  H   UNL     1     141.799 164.693 191.084  0.00  0.00    +0.023 HD
ATOM    126  H   UNL     1     142.726 165.343 189.770  0.00  0.00    +0.023 HD
ENDBRANCH 121 123
BRANCH 121 127
ATOM    127  C   UNL     1     143.875 166.973 192.297  0.00  0.00    +0.064 C 
ATOM    128  H   UNL     1     144.516 167.651 191.720  0.00  0.00    +0.060 HD
BRANCH 127 129
ATOM    129  C   UNL     1     144.731 165.718 192.639  0.00  0.00    -0.017 C 
ATOM    130  H   UNL     1     144.143 164.815 192.452  0.00  0.00    +0.032 HD
BRANCH 129 131
ATOM    131  C   UNL     1     146.000 165.654 191.783  0.00  0.00    -0.060 C 
ATOM    132  H   UNL     1     146.408 166.646 191.569  0.00  0.00    +0.023 HD
ATOM    133  H   UNL     1     146.783 165.069 192.279  0.00  0.00    +0.023 HD
ATOM    134  H   UNL     1     145.791 165.185 190.815  0.00  0.00    +0.023 HD
ENDBRANCH 129 131
BRANCH 129 135
ATOM    135  C   UNL     1     145.163 165.659 194.127  0.00  0.00    -0.046 C 
ATOM    136  H   UNL     1     144.966 166.642 194.571  0.00  0.00    +0.027 HD
ATOM    137  H   UNL     1     144.543 164.942 194.678  0.00  0.00    +0.027 HD
BRANCH 135 138
ATOM    138  C   UNL     1     146.644 165.316 194.343  0.00  0.00    -0.026 C 
ATOM    139  H   UNL     1     146.731 164.471 195.032  0.00  0.00    +0.029 HD
ATOM    140  H   UNL     1     147.078 164.995 193.388  0.00  0.00    +0.029 HD
BRANCH 138 143
ATOM    141  C   UNL     1     149.285 166.504 193.368  0.00  0.00    +0.059 C 
ATOM    142  O   UNL     1     148.172 167.209 193.930  0.00  0.00    -0.373 OA
ATOM    143  C   UNL     1     147.442 166.491 194.931  0.00  0.00    +0.061 C 
ATOM    144  C   UNL     1     148.380 166.065 196.063  0.00  0.00    -0.000 C 
ATOM    145  C   UNL     1     149.585 165.288 195.538  0.00  0.00    +0.063 C 
ATOM    146  C   UNL     1     150.279 166.103 194.450  0.00  0.00    -0.000 C 
ATOM    147  H   UNL     1     148.916 165.619 192.838  0.00  0.00    +0.059 HD
ATOM    148  H   UNL     1     146.719 167.206 195.344  0.00  0.00    +0.060 HD
ATOM    149  H   UNL     1     148.742 166.965 196.580  0.00  0.00    +0.032 HD
ATOM    150  H   UNL     1     147.843 165.481 196.818  0.00  0.00    +0.032 HD
ATOM    151  H   UNL     1     149.247 164.326 195.134  0.00  0.00    +0.060 HD
ATOM    152  H   UNL     1     151.112 165.541 194.012  0.00  0.00    +0.032 HD
ATOM    153  H   UNL     1     150.721 166.999 194.911  0.00  0.00    +0.032 HD
BRANCH 141 154
ATOM    154  C   UNL     1     149.931 167.424 192.344  0.00  0.00    -0.039 C 
ATOM    155  H   UNL     1     150.841 166.985 191.925  0.00  0.00    +0.025 HD
ATOM    156  H   UNL     1     149.234 167.633 191.523  0.00  0.00    +0.025 HD
ATOM    157  H   UNL     1     150.181 168.392 192.793  0.00  0.00    +0.025 HD
ENDBRANCH 141 154
BRANCH 145 158
ATOM    158  O   UNL     1     150.447 165.034 196.652  0.00  0.00    -0.380 OA
BRANCH 158 159
ATOM    159  C   UNL     1     150.990 163.720 196.657  0.00  0.00    +0.037 C 
ATOM    160  H   UNL     1     151.385 163.513 195.659  0.00  0.00    +0.052 HD
ATOM    161  H   UNL     1     150.216 162.984 196.876  0.00  0.00    +0.052 HD
ATOM    162  H   UNL     1     151.812 163.630 197.374  0.00  0.00    +0.052 HD
ENDBRANCH 158 159
ENDBRANCH 145 158
ENDBRANCH 138 143
ENDBRANCH 135 138
ENDBRANCH 129 135
ENDBRANCH 127 129
BRANCH 127 163
ATOM    163  O   UNL     1     143.540 167.658 193.502  0.00  0.00    -0.391 OA
ATOM    164  H   UNL     1     142.601 167.498 193.691  0.00  0.00    +0.210 HD
ENDBRANCH 127 163
ENDBRANCH 121 127
ENDBRANCH   1 121
BRANCH  41 165
ATOM    165  O   UNL     1     144.889 167.627 187.604  0.00  0.00    -0.391 OA
ATOM    166  H   UNL     1     145.681 167.077 187.743  0.00  0.00    +0.210 HD
ENDBRANCH  41 165
BRANCH  39 167
ATOM    167  O   UNL     1     142.602 168.763 186.564  0.00  0.00    -0.391 OA
ATOM    168  H   UNL     1     142.773 169.114 185.664  0.00  0.00    +0.210 HD
ENDBRANCH  39 167
BRANCH  31 169
ATOM    169  O   UNL     1     136.394 173.944 184.265  0.00  0.00    -0.391 OA
ATOM    170  H   UNL     1     136.843 173.633 185.072  0.00  0.00    +0.210 HD
ENDBRANCH  31 169
BRANCH  22 171
ATOM    171  C   UNL     1     144.933 172.249 184.977  0.00  0.00    +0.020 C 
ATOM    172  H   UNL     1     145.099 171.188 184.784  0.00  0.00    +0.036 HD
BRANCH 171 173
ATOM    173  C   UNL     1     146.251 172.711 185.628  0.00  0.00    -0.057 C 
ATOM    174  H   UNL     1     146.065 173.180 186.601  0.00  0.00    +0.023 HD
ATOM    175  H   UNL     1     146.925 171.862 185.801  0.00  0.00    +0.023 HD
ATOM    176  H   UNL     1     146.790 173.418 184.990  0.00  0.00    +0.023 HD
ENDBRANCH 171 173
BRANCH 171 177
ATOM    177  C   UNL     1     143.794 172.407 186.043  0.00  0.00    +0.064 C 
ATOM    178  H   UNL     1     143.016 173.070 185.637  0.00  0.00    +0.060 HD
BRANCH 177 179
ATOM    179  O   UNL     1     143.135 171.163 186.271  0.00  0.00    -0.391 OA
ATOM    180  H   UNL     1     142.316 171.347 186.765  0.00  0.00    +0.210 HD
ENDBRANCH 177 179
BRANCH 177 181
ATOM    181  C   UNL     1     144.270 173.009 187.411  0.00  0.00    -0.017 C 
ATOM    182  H   UNL     1     145.123 173.672 187.210  0.00  0.00    +0.032 HD
BRANCH 181 183
ATOM    183  C   UNL     1     143.151 173.827 188.078  0.00  0.00    -0.060 C 
ATOM    184  H   UNL     1     142.271 173.846 187.426  0.00  0.00    +0.023 HD
ATOM    185  H   UNL     1     143.443 174.859 188.286  0.00  0.00    +0.023 HD
ATOM    186  H   UNL     1     142.864 173.407 189.045  0.00  0.00    +0.023 HD
ENDBRANCH 181 183
BRANCH 181 187
ATOM    187  C   UNL     1     144.764 171.893 188.379  0.00  0.00    -0.046 C 
ATOM    188  H   UNL     1     144.893 170.965 187.817  0.00  0.00    +0.027 HD
ATOM    189  H   UNL     1     143.978 171.724 189.124  0.00  0.00    +0.027 HD
BRANCH 187 190
ATOM    190  C   UNL     1     146.088 172.217 189.099  0.00  0.00    -0.026 C 
ATOM    191  H   UNL     1     146.099 173.287 189.327  0.00  0.00    +0.029 HD
ATOM    192  H   UNL     1     146.918 172.029 188.407  0.00  0.00    +0.029 HD
BRANCH 190 193
ATOM    193  C   UNL     1     146.388 171.509 190.438  0.00  0.00    +0.061 C 
ATOM    194  O   UNL     1     145.987 172.267 191.579  0.00  0.00    -0.373 OA
ATOM    195  C   UNL     1     146.928 173.210 192.078  0.00  0.00    +0.059 C 
ATOM    196  C   UNL     1     148.266 172.555 192.391  0.00  0.00    -0.000 C 
ATOM    197  C   UNL     1     148.819 171.855 191.145  0.00  0.00    +0.063 C 
ATOM    198  C   UNL     1     147.776 170.885 190.595  0.00  0.00    -0.000 C 
ATOM    199  H   UNL     1     145.688 170.662 190.444  0.00  0.00    +0.060 HD
ATOM    200  H   UNL     1     147.055 174.012 191.344  0.00  0.00    +0.059 HD
ATOM    201  H   UNL     1     148.976 173.304 192.755  0.00  0.00    +0.032 HD
ATOM    202  H   UNL     1     148.161 171.811 193.189  0.00  0.00    +0.032 HD
ATOM    203  H   UNL     1     149.072 172.603 190.390  0.00  0.00    +0.060 HD
ATOM    204  H   UNL     1     147.694 170.058 191.315  0.00  0.00    +0.032 HD
ATOM    205  H   UNL     1     148.119 170.426 189.660  0.00  0.00    +0.032 HD
BRANCH 195 206
ATOM    206  C   UNL     1     146.334 173.817 193.344  0.00  0.00    -0.039 C 
ATOM    207  H   UNL     1     147.095 174.353 193.914  0.00  0.00    +0.025 HD
ATOM    208  H   UNL     1     145.529 174.513 193.100  0.00  0.00    +0.025 HD
ATOM    209  H   UNL     1     145.900 173.046 193.984  0.00  0.00    +0.025 HD
ENDBRANCH 195 206
BRANCH 197 210
ATOM    210  O   UNL     1     150.001 171.091 191.412  0.00  0.00    -0.380 OA
BRANCH 210 211
ATOM    211  C   UNL     1     150.333 170.996 192.789  0.00  0.00    +0.037 C 
ATOM    212  H   UNL     1     149.726 171.693 193.368  0.00  0.00    +0.052 HD
ATOM    213  H   UNL     1     150.094 169.985 193.129  0.00  0.00    +0.052 HD
ATOM    214  H   UNL     1     151.395 171.181 192.956  0.00  0.00    +0.052 HD
ENDBRANCH 210 211
ENDBRANCH 197 210
ENDBRANCH 190 193
ENDBRANCH 187 190
ENDBRANCH 181 187
ENDBRANCH 177 181
ENDBRANCH 171 177
ENDBRANCH  22 171
BRANCH  20 215
ATOM    215  O   UNL     1     142.255 174.914 183.996  0.00  0.00    -0.391 OA
ATOM    216  H   UNL     1     142.318 174.443 183.148  0.00  0.00    +0.210 HD
ENDBRANCH  20 215
BRANCH  18 217
ATOM    217  O   UNL     1     141.651 176.348 186.179  0.00  0.00    -0.391 OA
ATOM    218  H   UNL     1     141.565 175.561 186.759  0.00  0.00    +0.210 HD
ENDBRANCH  18 217
BRANCH  10 219
ATOM    219  O   UNL     1     139.665 176.457 194.749  0.00  0.00    -0.391 OA
ATOM    220  H   UNL     1     139.232 177.166 194.241  0.00  0.00    +0.210 HD
ENDBRANCH  10 219
BRANCH  37 221
ATOM    221  O   UNL     1     138.805 167.998 184.865  0.00  0.00    -0.379 OA
BRANCH 221 222
ATOM    222  C   UNL     1     138.797 167.963 183.443  0.00  0.00    +0.037 C 
ATOM    223  H   UNL     1     139.787 167.692 183.061  0.00  0.00    +0.052 HD
ATOM    224  H   UNL     1     138.492 168.927 183.026  0.00  0.00    +0.052 HD
ATOM    225  H   UNL     1     138.079 167.204 183.116  0.00  0.00    +0.052 HD
ENDBRANCH 221 222
ENDBRANCH  37 221
BRANCH  16 226
ATOM    226  O   UNL     1     140.709 178.437 187.719  0.00  0.00    -0.379 OA
BRANCH 226 227
ATOM    227  C   UNL     1     139.993 179.439 187.012  0.00  0.00    +0.037 C 
ATOM    228  H   UNL     1     140.106 180.379 187.557  0.00  0.00    +0.052 HD
ATOM    229  H   UNL     1     140.401 179.579 186.004  0.00  0.00    +0.052 HD
ATOM    230  H   UNL     1     138.926 179.206 186.963  0.00  0.00    +0.052 HD
ENDBRANCH 226 227
ENDBRANCH  16 226
TORSDOF 40
ENDMDL
MODEL 2
REMARK VINA RESULT:      -6.2      1.678      2.764
REMARK  Name = Swinholide A_conf2
REMARK  40 active torsions:
REMARK  status: ('A' for Active; 'I' for Inactive)
REMARK    1  A    between atoms: C_1  and  C_2
REMARK    2  A    between atoms: C_4  and  C_10
REMARK    3  A    between atoms: C_6  and  O_8
REMARK    4  A    between atoms: O_8  and  C_9
REMARK    5  A    between atoms: C_10  and  C_11
REMARK    6  A    between atoms: C_11  and  C_12
REMARK    7  A    between atoms: C_12  and  C_13
REMARK    8  A    between atoms: C_12  and  C_98
REMARK    9  A    between atoms: C_13  and  O_14
REMARK   10  A    between atoms: C_13  and  C_15
REMARK   11  A    between atoms: C_15  and  C_16
REMARK   12  A    between atoms: C_15  and  C_97
REMARK   13  A    between atoms: C_22  and  C_96
REMARK   14  A    between atoms: C_25  and  O_95
REMARK   15  A    between atoms: C_31  and  O_90
REMARK   16  A    between atoms: C_32  and  C_89
REMARK   17  A    between atoms: C_33  and  O_88
REMARK   18  A    between atoms: C_35  and  O_87
REMARK   19  A    between atoms: C_36  and  C_86
REMARK   20  A    between atoms: C_37  and  C_69
REMARK   21  A    between atoms: C_43  and  C_68
REMARK   22  A    between atoms: C_46  and  O_67
REMARK   23  A    between atoms: C_52  and  O_62
REMARK   24  A    between atoms: C_53  and  C_61
REMARK   25  A    between atoms: C_54  and  O_60
REMARK   26  A    between atoms: C_56  and  O_59
REMARK   27  A    between atoms: C_57  and  C_58
REMARK   28  A    between atoms: O_62  and  C_63
REMARK   29  A    between atoms: C_69  and  C_70
REMARK   30  A    between atoms: C_69  and  C_85
REMARK   31  A    between atoms: C_70  and  O_71
REMARK   32  A    between atoms: C_70  and  C_72
REMARK   33  A    between atoms: C_72  and  C_73
REMARK   34  A    between atoms: C_72  and  C_84
REMARK   35  A    between atoms: C_73  and  C_74
REMARK   36  A    between atoms: C_74  and  C_75
REMARK   37  A    between atoms: C_77  and  C_83
REMARK   38  A    between atoms: C_79  and  O_81
REMARK   39  A    between atoms: O_81  and  C_82
REMARK   40  A    between atoms: O_90  and  C_91
REMARK                            x       y       z     vdW  Elec       q    Type
REMARK                         _______ _______ _______ _____ _____    ______ ____
ROOT
ATOM      1  C   UNL     1     143.632 167.165 189.310  0.00  0.00    +0.113 C 
ATOM      2  O   UNL     1     143.245 168.306 190.120  0.00  0.00    -0.458 OA
ATOM      3  C   UNL     1     141.934 168.645 190.082  0.00  0.00    +0.332 C 
ATOM      4  O   UNL     1     141.045 168.077 189.473  0.00  0.00    -0.246 OA
ATOM      5  C   UNL     1     141.743 169.875 190.884  0.00  0.00    +0.023 C 
ATOM      6  C   UNL     1     140.501 170.348 191.070  0.00  0.00    -0.052 C 
ATOM      7  C   UNL     1     140.142 171.584 191.755  0.00  0.00    -0.054 C 
ATOM      8  C   UNL     1     140.857 172.073 192.787  0.00  0.00    -0.079 C 
ATOM      9  C   UNL     1     140.528 173.300 193.600  0.00  0.00    -0.008 C 
ATOM     10  C   UNL     1     141.546 174.450 193.454  0.00  0.00    +0.061 C 
ATOM     11  C   UNL     1     141.477 175.124 192.075  0.00  0.00    +0.003 C 
ATOM     12  C   UNL     1     142.310 176.418 191.954  0.00  0.00    +0.080 C 
ATOM     13  O   UNL     1     142.707 176.638 190.581  0.00  0.00    -0.369 OA
ATOM     14  C   UNL     1     141.667 177.191 189.752  0.00  0.00    +0.065 C 
ATOM     15  C   UNL     1     142.215 177.220 188.314  0.00  0.00    +0.000 C 
ATOM     16  C   UNL     1     141.290 177.896 187.277  0.00  0.00    +0.066 C 
ATOM     17  C   UNL     1     141.746 177.669 185.795  0.00  0.00    +0.009 C 
ATOM     18  C   UNL     1     141.876 176.178 185.395  0.00  0.00    +0.063 C 
ATOM     19  C   UNL     1     142.246 175.968 183.905  0.00  0.00    -0.000 C 
ATOM     20  C   UNL     1     142.175 174.474 183.554  0.00  0.00    +0.064 C 
ATOM     21  C   UNL     1     143.027 174.067 182.323  0.00  0.00    +0.020 C 
ATOM     22  C   UNL     1     143.256 172.524 182.236  0.00  0.00    +0.113 C 
ATOM     23  O   UNL     1     141.921 171.963 182.098  0.00  0.00    -0.458 OA
ATOM     24  C   UNL     1     141.687 170.974 181.209  0.00  0.00    +0.332 C 
ATOM     25  O   UNL     1     142.531 170.345 180.569  0.00  0.00    -0.246 OA
ATOM     26  C   UNL     1     140.237 170.707 181.085  0.00  0.00    +0.023 C 
ATOM     27  C   UNL     1     139.302 171.282 181.870  0.00  0.00    -0.052 C 
ATOM     28  C   UNL     1     137.857 171.071 181.838  0.00  0.00    -0.054 C 
ATOM     29  C   UNL     1     137.109 171.673 182.787  0.00  0.00    -0.079 C 
ATOM     30  C   UNL     1     135.631 171.553 183.024  0.00  0.00    -0.008 C 
ATOM     31  C   UNL     1     135.204 171.285 184.482  0.00  0.00    +0.061 C 
ATOM     32  C   UNL     1     135.662 169.950 185.105  0.00  0.00    +0.003 C 
ATOM     33  C   UNL     1     137.030 169.830 185.806  0.00  0.00    +0.080 C 
ATOM     34  O   UNL     1     138.086 169.858 184.841  0.00  0.00    -0.369 OA
ATOM     35  C   UNL     1     139.409 169.911 185.385  0.00  0.00    +0.065 C 
ATOM     36  C   UNL     1     139.821 168.628 186.130  0.00  0.00    +0.000 C 
ATOM     37  C   UNL     1     139.983 167.430 185.164  0.00  0.00    +0.066 C 
ATOM     38  C   UNL     1     140.962 166.371 185.746  0.00  0.00    +0.009 C 
ATOM     39  C   UNL     1     142.456 166.724 185.480  0.00  0.00    +0.063 C 
ATOM     40  C   UNL     1     143.418 165.932 186.406  0.00  0.00    -0.000 C 
ATOM     41  C   UNL     1     144.647 166.672 186.951  0.00  0.00    +0.064 C 
ATOM     42  C   UNL     1     144.371 167.725 188.054  0.00  0.00    +0.020 C 
ATOM     43  C   UNL     1     139.585 171.186 186.228  0.00  0.00    -0.008 C 
ATOM     44  C   UNL     1     138.405 171.467 187.108  0.00  0.00    -0.083 C 
ATOM     45  C   UNL     1     137.246 170.832 186.911  0.00  0.00    -0.059 C 
ATOM     46  C   UNL     1     141.273 178.588 190.253  0.00  0.00    -0.008 C 
ATOM     47  C   UNL     1     141.112 178.618 191.742  0.00  0.00    -0.083 C 
ATOM     48  C   UNL     1     141.603 177.635 192.505  0.00  0.00    -0.059 C 
ATOM     49  H   UNL     1     142.736 166.679 188.926  0.00  0.00    +0.074 HD
ATOM     50  H   UNL     1     142.628 170.363 191.261  0.00  0.00    +0.069 HD
ATOM     51  H   UNL     1     139.662 169.806 190.634  0.00  0.00    +0.062 HD
ATOM     52  H   UNL     1     141.736 171.532 193.135  0.00  0.00    +0.058 HD
ATOM     53  H   UNL     1     140.488 172.990 194.652  0.00  0.00    +0.033 HD
ATOM     54  H   UNL     1     139.523 173.681 193.394  0.00  0.00    +0.033 HD
ATOM     55  H   UNL     1     142.557 174.066 193.615  0.00  0.00    +0.060 HD
ATOM     56  H   UNL     1     141.807 174.411 191.311  0.00  0.00    +0.032 HD
ATOM     57  H   UNL     1     140.433 175.356 191.833  0.00  0.00    +0.032 HD
ATOM     58  H   UNL     1     143.250 176.292 192.500  0.00  0.00    +0.064 HD
ATOM     59  H   UNL     1     140.803 176.516 189.781  0.00  0.00    +0.060 HD
ATOM     60  H   UNL     1     143.196 177.710 188.300  0.00  0.00    +0.032 HD
ATOM     61  H   UNL     1     142.404 176.175 188.038  0.00  0.00    +0.032 HD
ATOM     62  H   UNL     1     141.314 178.978 187.471  0.00  0.00    +0.060 HD
ATOM     63  H   UNL     1     140.969 178.100 185.155  0.00  0.00    +0.035 HD
ATOM     64  H   UNL     1     142.674 175.708 185.983  0.00  0.00    +0.060 HD
ATOM     65  H   UNL     1     143.259 176.349 183.723  0.00  0.00    +0.032 HD
ATOM     66  H   UNL     1     141.551 176.530 183.274  0.00  0.00    +0.032 HD
ATOM     67  H   UNL     1     142.530 173.926 184.427  0.00  0.00    +0.060 HD
ATOM     68  H   UNL     1     143.997 174.561 182.431  0.00  0.00    +0.036 HD
ATOM     69  H   UNL     1     143.843 172.305 181.334  0.00  0.00    +0.074 HD
ATOM     70  H   UNL     1     139.985 169.981 180.321  0.00  0.00    +0.069 HD
ATOM     71  H   UNL     1     139.642 171.960 182.653  0.00  0.00    +0.062 HD
ATOM     72  H   UNL     1     137.618 172.300 183.523  0.00  0.00    +0.058 HD
ATOM     73  H   UNL     1     135.183 172.505 182.706  0.00  0.00    +0.033 HD
ATOM     74  H   UNL     1     135.188 170.775 182.401  0.00  0.00    +0.033 HD
ATOM     75  H   UNL     1     134.111 171.215 184.433  0.00  0.00    +0.060 HD
ATOM     76  H   UNL     1     135.601 169.174 184.331  0.00  0.00    +0.032 HD
ATOM     77  H   UNL     1     134.914 169.689 185.859  0.00  0.00    +0.032 HD
ATOM     78  H   UNL     1     137.036 168.834 186.259  0.00  0.00    +0.064 HD
ATOM     79  H   UNL     1     140.086 170.019 184.527  0.00  0.00    +0.060 HD
ATOM     80  H   UNL     1     139.092 168.377 186.908  0.00  0.00    +0.032 HD
ATOM     81  H   UNL     1     140.761 168.834 186.653  0.00  0.00    +0.032 HD
ATOM     82  H   UNL     1     140.366 167.766 184.192  0.00  0.00    +0.060 HD
ATOM     83  H   UNL     1     140.793 166.339 186.830  0.00  0.00    +0.035 HD
ATOM     84  H   UNL     1     142.689 166.451 184.442  0.00  0.00    +0.060 HD
ATOM     85  H   UNL     1     143.778 165.076 185.815  0.00  0.00    +0.032 HD
ATOM     86  H   UNL     1     142.863 165.473 187.227  0.00  0.00    +0.032 HD
ATOM     87  H   UNL     1     145.353 165.938 187.353  0.00  0.00    +0.060 HD
ATOM     88  H   UNL     1     143.704 168.493 187.639  0.00  0.00    +0.036 HD
ATOM     89  H   UNL     1     140.496 171.128 186.834  0.00  0.00    +0.033 HD
ATOM     90  H   UNL     1     139.690 172.049 185.558  0.00  0.00    +0.033 HD
ATOM     91  H   UNL     1     138.503 172.226 187.877  0.00  0.00    +0.057 HD
ATOM     92  H   UNL     1     136.397 171.050 187.558  0.00  0.00    +0.059 HD
ATOM     93  H   UNL     1     142.033 179.326 189.977  0.00  0.00    +0.033 HD
ATOM     94  H   UNL     1     140.331 178.897 189.785  0.00  0.00    +0.033 HD
ATOM     95  H   UNL     1     140.611 179.466 192.189  0.00  0.00    +0.057 HD
ATOM     96  H   UNL     1     141.477 177.686 193.584  0.00  0.00    +0.059 HD
ENDROOT
BRANCH  28  97
ATOM     97  C   UNL     1     137.301 170.180 180.757  0.00  0.00    -0.040 C 
ATOM     98  H   UNL     1     136.211 170.272 180.711  0.00  0.00    +0.028 HD
ATOM     99  H   UNL     1     137.499 169.117 180.920  0.00  0.00    +0.028 HD
ATOM    100  H   UNL     1     137.719 170.444 179.779  0.00  0.00    +0.028 HD
ENDBRANCH  28  97
BRANCH  21 101
ATOM    101  C   UNL     1     142.434 174.579 181.004  0.00  0.00    -0.057 C 
ATOM    102  H   UNL     1     142.071 175.605 181.105  0.00  0.00    +0.023 HD
ATOM    103  H   UNL     1     143.194 174.574 180.220  0.00  0.00    +0.023 HD
ATOM    104  H   UNL     1     141.600 173.964 180.652  0.00  0.00    +0.023 HD
ENDBRANCH  21 101
BRANCH  42 105
ATOM    105  C   UNL     1     145.653 168.511 188.377  0.00  0.00    -0.057 C 
ATOM    106  H   UNL     1     146.033 168.268 189.370  0.00  0.00    +0.023 HD
ATOM    107  H   UNL     1     145.502 169.591 188.297  0.00  0.00    +0.023 HD
ATOM    108  H   UNL     1     146.443 168.241 187.671  0.00  0.00    +0.023 HD
ENDBRANCH  42 105
BRANCH  17 109
ATOM    109  C   UNL     1     143.039 178.441 185.507  0.00  0.00    -0.058 C 
ATOM    110  H   UNL     1     143.868 178.066 186.105  0.00  0.00    +0.023 HD
ATOM    111  H   UNL     1     142.917 179.498 185.762  0.00  0.00    +0.023 HD
ATOM    112  H   UNL     1     143.319 178.382 184.455  0.00  0.00    +0.023 HD
ENDBRANCH  17 109
BRANCH  38 113
ATOM    113  C   UNL     1     140.694 164.949 185.220  0.00  0.00    -0.058 C 
ATOM    114  H   UNL     1     141.428 164.224 185.590  0.00  0.00    +0.023 HD
ATOM    115  H   UNL     1     139.694 164.603 185.525  0.00  0.00    +0.023 HD
ATOM    116  H   UNL     1     140.736 164.914 184.128  0.00  0.00    +0.023 HD
ENDBRANCH  38 113
BRANCH   7 117
ATOM    117  C   UNL     1     138.889 172.240 191.237  0.00  0.00    -0.040 C 
ATOM    118  H   UNL     1     138.855 173.289 191.543  0.00  0.00    +0.028 HD
ATOM    119  H   UNL     1     137.992 171.747 191.623  0.00  0.00    +0.028 HD
ATOM    120  H   UNL     1     138.822 172.193 190.144  0.00  0.00    +0.028 HD
ENDBRANCH   7 117
BRANCH   1 121
ATOM    121  C   UNL     1     144.361 166.104 190.184  0.00  0.00    +0.020 C 
ATOM    122  H   UNL     1     143.678 165.267 190.364  0.00  0.00    +0.036 HD
BRANCH 121 123
ATOM    123  C   UNL     1     145.612 165.501 189.517  0.00  0.00    -0.057 C 
ATOM    124  H   UNL     1     146.520 165.668 190.103  0.00  0.00    +0.023 HD
ATOM    125  H   UNL     1     145.498 164.424 189.367  0.00  0.00    +0.023 HD
ATOM    126  H   UNL     1     145.759 165.913 188.517  0.00  0.00    +0.023 HD
ENDBRANCH 121 123
BRANCH 121 127
ATOM    127  C   UNL     1     144.789 166.666 191.583  0.00  0.00    +0.064 C 
ATOM    128  H   UNL     1     145.722 166.173 191.884  0.00  0.00    +0.060 HD
BRANCH 127 129
ATOM    129  C   UNL     1     143.768 166.452 192.738  0.00  0.00    -0.017 C 
ATOM    130  H   UNL     1     143.357 167.419 193.045  0.00  0.00    +0.032 HD
BRANCH 129 131
ATOM    131  C   UNL     1     142.607 165.553 192.302  0.00  0.00    -0.060 C 
ATOM    132  H   UNL     1     141.812 165.505 193.052  0.00  0.00    +0.023 HD
ATOM    133  H   UNL     1     142.163 165.905 191.363  0.00  0.00    +0.023 HD
ATOM    134  H   UNL     1     142.951 164.524 192.145  0.00  0.00    +0.023 HD
ENDBRANCH 129 131
BRANCH 129 135
ATOM    135  C   UNL     1     144.400 165.822 194.005  0.00  0.00    -0.046 C 
ATOM    136  H   UNL     1     144.253 166.523 194.836  0.00  0.00    +0.027 HD
ATOM    137  H   UNL     1     143.870 164.903 194.281  0.00  0.00    +0.027 HD
BRANCH 135 138
ATOM    138  C   UNL     1     145.900 165.522 193.883  0.00  0.00    -0.026 C 
ATOM    139  H   UNL     1     146.106 164.509 194.242  0.00  0.00    +0.029 HD
ATOM    140  H   UNL     1     146.183 165.548 192.823  0.00  0.00    +0.029 HD
BRANCH 138 143
ATOM    141  C   UNL     1     148.182 167.308 192.914  0.00  0.00    +0.059 C 
ATOM    142  O   UNL     1     147.207 167.615 193.917  0.00  0.00    -0.373 OA
ATOM    143  C   UNL     1     146.766 166.498 194.696  0.00  0.00    +0.061 C 
ATOM    144  C   UNL     1     147.963 165.816 195.363  0.00  0.00    -0.000 C 
ATOM    145  C   UNL     1     149.040 165.441 194.348  0.00  0.00    +0.063 C 
ATOM    146  C   UNL     1     149.421 166.675 193.535  0.00  0.00    -0.000 C 
ATOM    147  H   UNL     1     147.736 166.635 192.175  0.00  0.00    +0.059 HD
ATOM    148  H   UNL     1     146.133 166.917 195.489  0.00  0.00    +0.060 HD
ATOM    149  H   UNL     1     148.400 166.507 196.098  0.00  0.00    +0.032 HD
ATOM    150  H   UNL     1     147.645 164.935 195.932  0.00  0.00    +0.032 HD
ATOM    151  H   UNL     1     148.655 164.655 193.687  0.00  0.00    +0.060 HD
ATOM    152  H   UNL     1     150.149 166.420 192.755  0.00  0.00    +0.032 HD
ATOM    153  H   UNL     1     149.922 167.393 194.201  0.00  0.00    +0.032 HD
BRANCH 141 154
ATOM    154  C   UNL     1     148.528 168.611 192.208  0.00  0.00    -0.039 C 
ATOM    155  H   UNL     1     148.449 168.513 191.121  0.00  0.00    +0.025 HD
ATOM    156  H   UNL     1     147.857 169.414 192.537  0.00  0.00    +0.025 HD
ATOM    157  H   UNL     1     149.545 168.933 192.460  0.00  0.00    +0.025 HD
ENDBRANCH 141 154
BRANCH 145 158
ATOM    158  O   UNL     1     150.151 164.915 195.080  0.00  0.00    -0.380 OA
BRANCH 158 159
ATOM    159  C   UNL     1     150.454 165.657 196.255  0.00  0.00    +0.037 C 
ATOM    160  H   UNL     1     149.573 165.640 196.902  0.00  0.00    +0.052 HD
ATOM    161  H   UNL     1     150.675 166.696 196.009  0.00  0.00    +0.052 HD
ATOM    162  H   UNL     1     151.289 165.212 196.805  0.00  0.00    +0.052 HD
ENDBRANCH 158 159
ENDBRANCH 145 158
ENDBRANCH 138 143
ENDBRANCH 135 138
ENDBRANCH 129 135
ENDBRANCH 127 129
BRANCH 127 163
ATOM    163  O   UNL     1     145.084 168.056 191.464  0.00  0.00    -0.391 OA
ATOM    164  H   UNL     1     144.752 168.506 192.258  0.00  0.00    +0.210 HD
ENDBRANCH 127 163
ENDBRANCH 121 127
ENDBRANCH   1 121
BRANCH  41 165
ATOM    165  O   UNL     1     145.298 167.311 185.842  0.00  0.00    -0.391 OA
ATOM    166  H   UNL     1     144.657 167.339 185.109  0.00  0.00    +0.210 HD
ENDBRANCH  41 165
BRANCH  39 167
ATOM    167  O   UNL     1     142.678 168.119 185.553  0.00  0.00    -0.391 OA
ATOM    168  H   UNL     1     143.099 168.301 186.421  0.00  0.00    +0.210 HD
ENDBRANCH  39 167
BRANCH  31 169
ATOM    169  O   UNL     1     135.443 172.395 185.343  0.00  0.00    -0.391 OA
ATOM    170  H   UNL     1     134.591 172.691 185.711  0.00  0.00    +0.210 HD
ENDBRANCH  31 169
BRANCH  22 171
ATOM    171  C   UNL     1     143.960 171.879 183.475  0.00  0.00    +0.020 C 
ATOM    172  H   UNL     1     144.335 172.699 184.091  0.00  0.00    +0.036 HD
BRANCH 171 173
ATOM    173  C   UNL     1     142.941 171.172 184.389  0.00  0.00    -0.057 C 
ATOM    174  H   UNL     1     142.239 171.892 184.825  0.00  0.00    +0.023 HD
ATOM    175  H   UNL     1     142.348 170.440 183.827  0.00  0.00    +0.023 HD
ATOM    176  H   UNL     1     143.437 170.626 185.197  0.00  0.00    +0.023 HD
ENDBRANCH 171 173
BRANCH 171 177
ATOM    177  C   UNL     1     145.127 170.871 183.192  0.00  0.00    +0.064 C 
ATOM    178  H   UNL     1     144.900 169.915 183.686  0.00  0.00    +0.060 HD
BRANCH 177 179
ATOM    179  O   UNL     1     145.203 170.558 181.802  0.00  0.00    -0.391 OA
ATOM    180  H   UNL     1     145.761 171.232 181.376  0.00  0.00    +0.210 HD
ENDBRANCH 177 179
BRANCH 177 181
ATOM    181  C   UNL     1     146.531 171.351 183.701  0.00  0.00    -0.017 C 
ATOM    182  H   UNL     1     147.023 170.498 184.189  0.00  0.00    +0.032 HD
BRANCH 181 183
ATOM    183  C   UNL     1     147.411 171.832 182.534  0.00  0.00    -0.060 C 
ATOM    184  H   UNL     1     146.987 171.483 181.586  0.00  0.00    +0.023 HD
ATOM    185  H   UNL     1     148.440 171.472 182.601  0.00  0.00    +0.023 HD
ATOM    186  H   UNL     1     147.486 172.921 182.506  0.00  0.00    +0.023 HD
ENDBRANCH 181 183
BRANCH 181 187
ATOM    187  C   UNL     1     146.392 172.481 184.764  0.00  0.00    -0.046 C 
ATOM    188  H   UNL     1     145.596 173.164 184.456  0.00  0.00    +0.027 HD
ATOM    189  H   UNL     1     147.330 173.048 184.775  0.00  0.00    +0.027 HD
BRANCH 187 190
ATOM    190  C   UNL     1     146.082 171.979 186.188  0.00  0.00    -0.026 C 
ATOM    191  H   UNL     1     146.992 171.528 186.596  0.00  0.00    +0.029 HD
ATOM    192  H   UNL     1     145.331 171.183 186.123  0.00  0.00    +0.029 HD
BRANCH 190 193
ATOM    193  C   UNL     1     145.625 173.007 187.245  0.00  0.00    +0.061 C 
ATOM    194  O   UNL     1     145.832 172.566 188.587  0.00  0.00    -0.373 OA
ATOM    195  C   UNL     1     144.796 171.784 189.167  0.00  0.00    +0.059 C 
ATOM    196  C   UNL     1     143.453 172.499 189.106  0.00  0.00    -0.000 C 
ATOM    197  C   UNL     1     143.107 172.856 187.656  0.00  0.00    +0.063 C 
ATOM    198  C   UNL     1     144.253 173.651 187.036  0.00  0.00    -0.000 C 
ATOM    199  H   UNL     1     146.349 173.827 187.138  0.00  0.00    +0.060 HD
ATOM    200  H   UNL     1     144.742 170.821 188.650  0.00  0.00    +0.059 HD
ATOM    201  H   UNL     1     142.670 171.868 189.541  0.00  0.00    +0.032 HD
ATOM    202  H   UNL     1     143.473 173.422 189.696  0.00  0.00    +0.032 HD
ATOM    203  H   UNL     1     142.934 171.940 187.087  0.00  0.00    +0.060 HD
ATOM    204  H   UNL     1     144.265 174.635 187.527  0.00  0.00    +0.032 HD
ATOM    205  H   UNL     1     144.063 173.856 185.976  0.00  0.00    +0.032 HD
BRANCH 195 206
ATOM    206  C   UNL     1     145.182 171.521 190.618  0.00  0.00    -0.039 C 
ATOM    207  H   UNL     1     145.177 170.452 190.835  0.00  0.00    +0.025 HD
ATOM    208  H   UNL     1     146.179 171.914 190.832  0.00  0.00    +0.025 HD
ATOM    209  H   UNL     1     144.494 172.018 191.305  0.00  0.00    +0.025 HD
ENDBRANCH 195 206
BRANCH 197 210
ATOM    210  O   UNL     1     141.930 173.665 187.546  0.00  0.00    -0.380 OA
BRANCH 210 211
ATOM    211  C   UNL     1     141.093 173.631 188.692  0.00  0.00    +0.037 C 
ATOM    212  H   UNL     1     141.171 172.661 189.184  0.00  0.00    +0.052 HD
ATOM    213  H   UNL     1     141.445 174.390 189.395  0.00  0.00    +0.052 HD
ATOM    214  H   UNL     1     140.054 173.847 188.433  0.00  0.00    +0.052 HD
ENDBRANCH 210 211
ENDBRANCH 197 210
ENDBRANCH 190 193
ENDBRANCH 187 190
ENDBRANCH 181 187
ENDBRANCH 177 181
ENDBRANCH 171 177
ENDBRANCH  22 171
BRANCH  20 215
ATOM    215  O   UNL     1     140.786 174.150 183.409  0.00  0.00    -0.391 OA
ATOM    216  H   UNL     1     140.287 174.583 184.123  0.00  0.00    +0.210 HD
ENDBRANCH  20 215
BRANCH  18 217
ATOM    217  O   UNL     1     140.666 175.502 185.720  0.00  0.00    -0.391 OA
ATOM    218  H   UNL     1     139.935 175.827 185.152  0.00  0.00    +0.210 HD
ENDBRANCH  18 217
BRANCH  10 219
ATOM    219  O   UNL     1     141.288 175.393 194.495  0.00  0.00    -0.391 OA
ATOM    220  H   UNL     1     140.690 176.074 194.139  0.00  0.00    +0.210 HD
ENDBRANCH  10 219
BRANCH  37 221
ATOM    221  O   UNL     1     138.684 166.835 185.011  0.00  0.00    -0.379 OA
BRANCH 221 222
ATOM    222  C   UNL     1     138.265 166.789 183.653  0.00  0.00    +0.037 C 
ATOM    223  H   UNL     1     137.251 166.381 183.579  0.00  0.00    +0.052 HD
ATOM    224  H   UNL     1     138.949 166.186 183.049  0.00  0.00    +0.052 HD
ATOM    225  H   UNL     1     138.258 167.808 183.253  0.00  0.00    +0.052 HD
ENDBRANCH 221 222
ENDBRANCH  37 221
BRANCH  16 226
ATOM    226  O   UNL     1     139.952 177.454 187.538  0.00  0.00    -0.379 OA
BRANCH 226 227
ATOM    227  C   UNL     1     138.935 178.352 187.120  0.00  0.00    +0.037 C 
ATOM    228  H   UNL     1     139.419 179.269 186.776  0.00  0.00    +0.052 HD
ATOM    229  H   UNL     1     138.360 177.937 186.285  0.00  0.00    +0.052 HD
ATOM    230  H   UNL     1     138.270 178.614 187.948  0.00  0.00    +0.052 HD
ENDBRANCH 226 227
ENDBRANCH  16 226
TORSDOF 40
ENDMDL
MODEL 3
REMARK VINA RESULT:      -6.1      2.887      7.446
REMARK  Name = Swinholide A_conf2
REMARK  40 active torsions:
REMARK  status: ('A' for Active; 'I' for Inactive)
REMARK    1  A    between atoms: C_1  and  C_2
REMARK    2  A    between atoms: C_4  and  C_10
REMARK    3  A    between atoms: C_6  and  O_8
REMARK    4  A    between atoms: O_8  and  C_9
REMARK    5  A    between atoms: C_10  and  C_11
REMARK    6  A    between atoms: C_11  and  C_12
REMARK    7  A    between atoms: C_12  and  C_13
REMARK    8  A    between atoms: C_12  and  C_98
REMARK    9  A    between atoms: C_13  and  O_14
REMARK   10  A    between atoms: C_13  and  C_15
REMARK   11  A    between atoms: C_15  and  C_16
REMARK   12  A    between atoms: C_15  and  C_97
REMARK   13  A    between atoms: C_22  and  C_96
REMARK   14  A    between atoms: C_25  and  O_95
REMARK   15  A    between atoms: C_31  and  O_90
REMARK   16  A    between atoms: C_32  and  C_89
REMARK   17  A    between atoms: C_33  and  O_88
REMARK   18  A    between atoms: C_35  and  O_87
REMARK   19  A    between atoms: C_36  and  C_86
REMARK   20  A    between atoms: C_37  and  C_69
REMARK   21  A    between atoms: C_43  and  C_68
REMARK   22  A    between atoms: C_46  and  O_67
REMARK   23  A    between atoms: C_52  and  O_62
REMARK   24  A    between atoms: C_53  and  C_61
REMARK   25  A    between atoms: C_54  and  O_60
REMARK   26  A    between atoms: C_56  and  O_59
REMARK   27  A    between atoms: C_57  and  C_58
REMARK   28  A    between atoms: O_62  and  C_63
REMARK   29  A    between atoms: C_69  and  C_70
REMARK   30  A    between atoms: C_69  and  C_85
REMARK   31  A    between atoms: C_70  and  O_71
REMARK   32  A    between atoms: C_70  and  C_72
REMARK   33  A    between atoms: C_72  and  C_73
REMARK   34  A    between atoms: C_72  and  C_84
REMARK   35  A    between atoms: C_73  and  C_74
REMARK   36  A    between atoms: C_74  and  C_75
REMARK   37  A    between atoms: C_77  and  C_83
REMARK   38  A    between atoms: C_79  and  O_81
REMARK   39  A    between atoms: O_81  and  C_82
REMARK   40  A    between atoms: O_90  and  C_91
REMARK                            x       y       z     vdW  Elec       q    Type
REMARK                         _______ _______ _______ _____ _____    ______ ____
ROOT
ATOM      1  C   UNL     1     142.843 169.234 189.066  0.00  0.00    +0.113 C 
ATOM      2  O   UNL     1     141.417 169.150 188.811  0.00  0.00    -0.458 OA
ATOM      3  C   UNL     1     140.998 169.618 187.610  0.00  0.00    +0.332 C 
ATOM      4  O   UNL     1     141.691 170.067 186.714  0.00  0.00    -0.246 OA
ATOM      5  C   UNL     1     139.521 169.541 187.563  0.00  0.00    +0.023 C 
ATOM      6  C   UNL     1     138.885 169.865 186.427  0.00  0.00    -0.052 C 
ATOM      7  C   UNL     1     137.440 169.926 186.234  0.00  0.00    -0.054 C 
ATOM      8  C   UNL     1     136.588 169.114 186.890  0.00  0.00    -0.079 C 
ATOM      9  C   UNL     1     135.092 169.056 186.707  0.00  0.00    -0.008 C 
ATOM     10  C   UNL     1     134.284 169.499 187.944  0.00  0.00    +0.061 C 
ATOM     11  C   UNL     1     134.375 171.012 188.193  0.00  0.00    +0.003 C 
ATOM     12  C   UNL     1     133.410 171.540 189.276  0.00  0.00    +0.080 C 
ATOM     13  O   UNL     1     133.941 172.738 189.887  0.00  0.00    -0.369 OA
ATOM     14  C   UNL     1     133.759 173.929 189.097  0.00  0.00    +0.065 C 
ATOM     15  C   UNL     1     134.503 175.062 189.826  0.00  0.00    +0.000 C 
ATOM     16  C   UNL     1     134.330 176.464 189.198  0.00  0.00    +0.066 C 
ATOM     17  C   UNL     1     135.307 177.536 189.792  0.00  0.00    +0.009 C 
ATOM     18  C   UNL     1     136.805 177.160 189.675  0.00  0.00    +0.063 C 
ATOM     19  C   UNL     1     137.762 178.265 190.189  0.00  0.00    -0.000 C 
ATOM     20  C   UNL     1     139.217 177.887 189.869  0.00  0.00    +0.064 C 
ATOM     21  C   UNL     1     140.269 178.575 190.778  0.00  0.00    +0.020 C 
ATOM     22  C   UNL     1     141.668 177.885 190.704  0.00  0.00    +0.113 C 
ATOM     23  O   UNL     1     142.074 178.026 189.314  0.00  0.00    -0.458 OA
ATOM     24  C   UNL     1     143.340 178.381 189.007  0.00  0.00    +0.332 C 
ATOM     25  O   UNL     1     144.291 178.459 189.786  0.00  0.00    -0.246 OA
ATOM     26  C   UNL     1     143.473 178.672 187.563  0.00  0.00    +0.023 C 
ATOM     27  C   UNL     1     142.487 178.462 186.666  0.00  0.00    -0.052 C 
ATOM     28  C   UNL     1     142.525 178.699 185.225  0.00  0.00    -0.054 C 
ATOM     29  C   UNL     1     141.456 178.321 184.493  0.00  0.00    -0.079 C 
ATOM     30  C   UNL     1     141.279 178.376 183.003  0.00  0.00    -0.008 C 
ATOM     31  C   UNL     1     140.744 177.089 182.342  0.00  0.00    +0.061 C 
ATOM     32  C   UNL     1     141.639 175.836 182.438  0.00  0.00    +0.003 C 
ATOM     33  C   UNL     1     141.547 174.887 183.650  0.00  0.00    +0.080 C 
ATOM     34  O   UNL     1     142.115 175.505 184.809  0.00  0.00    -0.369 OA
ATOM     35  C   UNL     1     141.947 174.781 186.032  0.00  0.00    +0.065 C 
ATOM     36  C   UNL     1     142.731 173.457 186.077  0.00  0.00    +0.000 C 
ATOM     37  C   UNL     1     144.260 173.696 186.124  0.00  0.00    +0.066 C 
ATOM     38  C   UNL     1     144.994 172.496 186.787  0.00  0.00    +0.009 C 
ATOM     39  C   UNL     1     144.984 172.571 188.343  0.00  0.00    +0.063 C 
ATOM     40  C   UNL     1     145.316 171.203 188.996  0.00  0.00    -0.000 C 
ATOM     41  C   UNL     1     144.544 170.817 190.265  0.00  0.00    +0.064 C 
ATOM     42  C   UNL     1     143.061 170.417 190.061  0.00  0.00    +0.020 C 
ATOM     43  C   UNL     1     140.450 174.611 186.345  0.00  0.00    -0.008 C 
ATOM     44  C   UNL     1     139.644 174.236 185.138  0.00  0.00    -0.083 C 
ATOM     45  C   UNL     1     140.162 174.356 183.913  0.00  0.00    -0.059 C 
ATOM     46  C   UNL     1     132.263 174.231 188.926  0.00  0.00    -0.008 C 
ATOM     47  C   UNL     1     131.485 172.999 188.579  0.00  0.00    -0.083 C 
ATOM     48  C   UNL     1     132.010 171.782 188.759  0.00  0.00    -0.059 C 
ATOM     49  H   UNL     1     143.354 169.529 188.150  0.00  0.00    +0.074 HD
ATOM     50  H   UNL     1     139.011 169.256 188.471  0.00  0.00    +0.069 HD
ATOM     51  H   UNL     1     139.475 170.166 185.562  0.00  0.00    +0.062 HD
ATOM     52  H   UNL     1     136.980 168.376 187.589  0.00  0.00    +0.058 HD
ATOM     53  H   UNL     1     134.836 168.015 186.468  0.00  0.00    +0.033 HD
ATOM     54  H   UNL     1     134.755 169.623 185.834  0.00  0.00    +0.033 HD
ATOM     55  H   UNL     1     134.647 168.967 188.828  0.00  0.00    +0.060 HD
ATOM     56  H   UNL     1     135.403 171.268 188.473  0.00  0.00    +0.032 HD
ATOM     57  H   UNL     1     134.180 171.550 187.258  0.00  0.00    +0.032 HD
ATOM     58  H   UNL     1     133.352 170.813 190.092  0.00  0.00    +0.064 HD
ATOM     59  H   UNL     1     134.232 173.774 188.120  0.00  0.00    +0.060 HD
ATOM     60  H   UNL     1     134.195 175.094 190.877  0.00  0.00    +0.032 HD
ATOM     61  H   UNL     1     135.562 174.774 189.837  0.00  0.00    +0.032 HD
ATOM     62  H   UNL     1     133.303 176.795 189.412  0.00  0.00    +0.060 HD
ATOM     63  H   UNL     1     135.166 178.451 189.208  0.00  0.00    +0.035 HD
ATOM     64  H   UNL     1     137.008 176.266 190.278  0.00  0.00    +0.060 HD
ATOM     65  H   UNL     1     137.635 178.383 191.273  0.00  0.00    +0.032 HD
ATOM     66  H   UNL     1     137.512 179.216 189.709  0.00  0.00    +0.032 HD
ATOM     67  H   UNL     1     139.298 176.807 189.989  0.00  0.00    +0.060 HD
ATOM     68  H   UNL     1     139.896 178.506 191.804  0.00  0.00    +0.036 HD
ATOM     69  H   UNL     1     142.366 178.434 191.349  0.00  0.00    +0.074 HD
ATOM     70  H   UNL     1     144.448 179.044 187.274  0.00  0.00    +0.069 HD
ATOM     71  H   UNL     1     141.553 178.032 187.027  0.00  0.00    +0.062 HD
ATOM     72  H   UNL     1     140.607 177.872 185.015  0.00  0.00    +0.058 HD
ATOM     73  H   UNL     1     140.566 179.186 182.800  0.00  0.00    +0.033 HD
ATOM     74  H   UNL     1     142.210 178.644 182.500  0.00  0.00    +0.033 HD
ATOM     75  H   UNL     1     140.709 177.331 181.273  0.00  0.00    +0.060 HD
ATOM     76  H   UNL     1     142.684 176.153 182.327  0.00  0.00    +0.032 HD
ATOM     77  H   UNL     1     141.411 175.225 181.560  0.00  0.00    +0.032 HD
ATOM     78  H   UNL     1     142.184 174.033 183.397  0.00  0.00    +0.064 HD
ATOM     79  H   UNL     1     142.351 175.425 186.824  0.00  0.00    +0.060 HD
ATOM     80  H   UNL     1     142.484 172.826 185.216  0.00  0.00    +0.032 HD
ATOM     81  H   UNL     1     142.399 172.903 186.962  0.00  0.00    +0.032 HD
ATOM     82  H   UNL     1     144.491 174.607 186.691  0.00  0.00    +0.060 HD
ATOM     83  H   UNL     1     144.468 171.586 186.473  0.00  0.00    +0.035 HD
ATOM     84  H   UNL     1     145.758 173.288 188.652  0.00  0.00    +0.060 HD
ATOM     85  H   UNL     1     146.386 171.237 189.254  0.00  0.00    +0.032 HD
ATOM     86  H   UNL     1     145.247 170.402 188.258  0.00  0.00    +0.032 HD
ATOM     87  H   UNL     1     145.056 169.981 190.751  0.00  0.00    +0.060 HD
ATOM     88  H   UNL     1     142.530 171.272 189.622  0.00  0.00    +0.036 HD
ATOM     89  H   UNL     1     140.301 173.870 187.138  0.00  0.00    +0.033 HD
ATOM     90  H   UNL     1     140.047 175.566 186.707  0.00  0.00    +0.033 HD
ATOM     91  H   UNL     1     138.620 173.907 185.283  0.00  0.00    +0.057 HD
ATOM     92  H   UNL     1     139.560 174.082 183.046  0.00  0.00    +0.059 HD
ATOM     93  H   UNL     1     131.845 174.650 189.848  0.00  0.00    +0.033 HD
ATOM     94  H   UNL     1     132.124 174.977 188.135  0.00  0.00    +0.033 HD
ATOM     95  H   UNL     1     130.477 173.115 188.202  0.00  0.00    +0.057 HD
ATOM     96  H   UNL     1     131.420 170.905 188.504  0.00  0.00    +0.059 HD
ENDROOT
BRANCH  28  97
ATOM     97  C   UNL     1     143.767 179.332 184.650  0.00  0.00    -0.040 C 
ATOM     98  H   UNL     1     144.611 179.203 185.334  0.00  0.00    +0.028 HD
ATOM     99  H   UNL     1     143.677 180.411 184.494  0.00  0.00    +0.028 HD
ATOM    100  H   UNL     1     144.021 178.884 183.683  0.00  0.00    +0.028 HD
ENDBRANCH  28  97
BRANCH  21 101
ATOM    101  C   UNL     1     140.412 180.074 190.478  0.00  0.00    -0.057 C 
ATOM    102  H   UNL     1     140.675 180.245 189.431  0.00  0.00    +0.023 HD
ATOM    103  H   UNL     1     139.470 180.589 190.671  0.00  0.00    +0.023 HD
ATOM    104  H   UNL     1     141.178 180.553 191.096  0.00  0.00    +0.023 HD
ENDBRANCH  21 101
BRANCH  42 105
ATOM    105  C   UNL     1     142.364 170.232 191.420  0.00  0.00    -0.057 C 
ATOM    106  H   UNL     1     142.249 171.182 191.944  0.00  0.00    +0.023 HD
ATOM    107  H   UNL     1     142.895 169.522 192.059  0.00  0.00    +0.023 HD
ATOM    108  H   UNL     1     141.355 169.840 191.270  0.00  0.00    +0.023 HD
ENDBRANCH  42 105
BRANCH  17 109
ATOM    109  C   UNL     1     134.925 177.868 191.239  0.00  0.00    -0.058 C 
ATOM    110  H   UNL     1     134.393 177.042 191.710  0.00  0.00    +0.023 HD
ATOM    111  H   UNL     1     134.257 178.734 191.269  0.00  0.00    +0.023 HD
ATOM    112  H   UNL     1     135.801 178.102 191.845  0.00  0.00    +0.023 HD
ENDBRANCH  17 109
BRANCH  38 113
ATOM    113  C   UNL     1     146.451 172.345 186.313  0.00  0.00    -0.058 C 
ATOM    114  H   UNL     1     147.130 172.085 187.133  0.00  0.00    +0.023 HD
ATOM    115  H   UNL     1     146.531 171.559 185.545  0.00  0.00    +0.023 HD
ATOM    116  H   UNL     1     146.825 173.274 185.874  0.00  0.00    +0.023 HD
ENDBRANCH  38 113
BRANCH   7 117
ATOM    117  C   UNL     1     136.992 170.942 185.216  0.00  0.00    -0.040 C 
ATOM    118  H   UNL     1     136.259 171.622 185.657  0.00  0.00    +0.028 HD
ATOM    119  H   UNL     1     136.529 170.461 184.350  0.00  0.00    +0.028 HD
ATOM    120  H   UNL     1     137.830 171.535 184.831  0.00  0.00    +0.028 HD
ENDBRANCH   7 117
BRANCH   1 121
ATOM    121  C   UNL     1     143.407 167.834 189.447  0.00  0.00    +0.020 C 
ATOM    122  H   UNL     1     144.011 167.934 190.355  0.00  0.00    +0.036 HD
BRANCH 121 123
ATOM    123  C   UNL     1     142.320 166.791 189.767  0.00  0.00    -0.057 C 
ATOM    124  H   UNL     1     141.348 167.249 189.966  0.00  0.00    +0.023 HD
ATOM    125  H   UNL     1     142.199 166.082 188.943  0.00  0.00    +0.023 HD
ATOM    126  H   UNL     1     142.604 166.181 190.627  0.00  0.00    +0.023 HD
ENDBRANCH 121 123
BRANCH 121 127
ATOM    127  C   UNL     1     144.333 167.234 188.334  0.00  0.00    +0.064 C 
ATOM    128  H   UNL     1     144.001 166.210 188.123  0.00  0.00    +0.060 HD
BRANCH 127 129
ATOM    129  C   UNL     1     145.848 167.160 188.683  0.00  0.00    -0.017 C 
ATOM    130  H   UNL     1     146.195 166.127 188.582  0.00  0.00    +0.032 HD
BRANCH 129 131
ATOM    131  C   UNL     1     146.683 168.043 187.750  0.00  0.00    -0.060 C 
ATOM    132  H   UNL     1     146.991 168.977 188.225  0.00  0.00    +0.023 HD
ATOM    133  H   UNL     1     147.588 167.521 187.416  0.00  0.00    +0.023 HD
ATOM    134  H   UNL     1     146.107 168.320 186.860  0.00  0.00    +0.023 HD
ENDBRANCH 129 131
BRANCH 129 135
ATOM    135  C   UNL     1     146.162 167.588 190.140  0.00  0.00    -0.046 C 
ATOM    136  H   UNL     1     145.410 168.328 190.440  0.00  0.00    +0.027 HD
ATOM    137  H   UNL     1     146.046 166.738 190.822  0.00  0.00    +0.027 HD
BRANCH 135 138
ATOM    138  C   UNL     1     147.555 168.203 190.334  0.00  0.00    -0.026 C 
ATOM    139  H   UNL     1     148.320 167.509 189.976  0.00  0.00    +0.029 HD
ATOM    140  H   UNL     1     147.633 169.109 189.719  0.00  0.00    +0.029 HD
BRANCH 138 143
ATOM    141  C   UNL     1     148.508 170.838 191.553  0.00  0.00    +0.059 C 
ATOM    142  O   UNL     1     147.598 169.895 192.130  0.00  0.00    -0.373 OA
ATOM    143  C   UNL     1     147.859 168.525 191.807  0.00  0.00    +0.061 C 
ATOM    144  C   UNL     1     149.285 168.149 192.214  0.00  0.00    -0.000 C 
ATOM    145  C   UNL     1     150.316 169.104 191.617  0.00  0.00    +0.063 C 
ATOM    146  C   UNL     1     149.941 170.540 191.974  0.00  0.00    -0.000 C 
ATOM    147  H   UNL     1     148.413 170.806 190.462  0.00  0.00    +0.059 HD
ATOM    148  H   UNL     1     147.166 167.935 192.421  0.00  0.00    +0.060 HD
ATOM    149  H   UNL     1     149.362 168.191 193.311  0.00  0.00    +0.032 HD
ATOM    150  H   UNL     1     149.512 167.113 191.937  0.00  0.00    +0.032 HD
ATOM    151  H   UNL     1     150.338 168.977 190.528  0.00  0.00    +0.060 HD
ATOM    152  H   UNL     1     150.631 171.253 191.505  0.00  0.00    +0.032 HD
ATOM    153  H   UNL     1     150.054 170.673 193.060  0.00  0.00    +0.032 HD
BRANCH 141 154
ATOM    154  C   UNL     1     148.077 172.222 192.016  0.00  0.00    -0.039 C 
ATOM    155  H   UNL     1     147.004 172.259 192.226  0.00  0.00    +0.025 HD
ATOM    156  H   UNL     1     148.621 172.508 192.925  0.00  0.00    +0.025 HD
ATOM    157  H   UNL     1     148.315 172.978 191.260  0.00  0.00    +0.025 HD
ENDBRANCH 141 154
BRANCH 145 158
ATOM    158  O   UNL     1     151.594 168.735 192.144  0.00  0.00    -0.380 OA
BRANCH 158 159
ATOM    159  C   UNL     1     151.702 167.349 192.442  0.00  0.00    +0.037 C 
ATOM    160  H   UNL     1     152.220 166.863 191.611  0.00  0.00    +0.052 HD
ATOM    161  H   UNL     1     150.714 166.897 192.537  0.00  0.00    +0.052 HD
ATOM    162  H   UNL     1     152.284 167.179 193.353  0.00  0.00    +0.052 HD
ENDBRANCH 158 159
ENDBRANCH 145 158
ENDBRANCH 138 143
ENDBRANCH 135 138
ENDBRANCH 129 135
ENDBRANCH 127 129
BRANCH 127 163
ATOM    163  O   UNL     1     144.162 167.974 187.127  0.00  0.00    -0.391 OA
ATOM    164  H   UNL     1     144.598 168.834 187.234  0.00  0.00    +0.210 HD
ENDBRANCH 127 163
ENDBRANCH 121 127
ENDBRANCH   1 121
BRANCH  41 165
ATOM    165  O   UNL     1     144.612 171.929 191.171  0.00  0.00    -0.391 OA
ATOM    166  H   UNL     1     145.019 171.605 191.995  0.00  0.00    +0.210 HD
ENDBRANCH  41 165
BRANCH  39 167
ATOM    167  O   UNL     1     143.769 173.109 188.826  0.00  0.00    -0.391 OA
ATOM    168  H   UNL     1     143.589 172.687 189.693  0.00  0.00    +0.210 HD
ENDBRANCH  39 167
BRANCH  31 169
ATOM    169  O   UNL     1     139.389 176.813 182.681  0.00  0.00    -0.391 OA
ATOM    170  H   UNL     1     139.342 176.609 183.633  0.00  0.00    +0.210 HD
ENDBRANCH  31 169
BRANCH  22 171
ATOM    171  C   UNL     1     141.691 176.371 191.095  0.00  0.00    +0.020 C 
ATOM    172  H   UNL     1     140.709 176.134 191.511  0.00  0.00    +0.036 HD
BRANCH 171 173
ATOM    173  C   UNL     1     141.784 175.474 189.846  0.00  0.00    -0.057 C 
ATOM    174  H   UNL     1     142.704 174.878 189.858  0.00  0.00    +0.023 HD
ATOM    175  H   UNL     1     140.943 174.771 189.802  0.00  0.00    +0.023 HD
ATOM    176  H   UNL     1     141.754 176.063 188.924  0.00  0.00    +0.023 HD
ENDBRANCH 171 173
BRANCH 171 177
ATOM    177  C   UNL     1     142.802 175.906 192.100  0.00  0.00    +0.064 C 
ATOM    178  H   UNL     1     143.520 175.267 191.566  0.00  0.00    +0.060 HD
BRANCH 177 179
ATOM    179  O   UNL     1     143.569 177.018 192.559  0.00  0.00    -0.391 OA
ATOM    180  H   UNL     1     143.048 177.824 192.399  0.00  0.00    +0.210 HD
ENDBRANCH 177 179
BRANCH 177 181
ATOM    181  C   UNL     1     142.261 175.096 193.329  0.00  0.00    -0.017 C 
ATOM    182  H   UNL     1     142.740 174.107 193.319  0.00  0.00    +0.032 HD
BRANCH 181 183
ATOM    183  C   UNL     1     142.603 175.801 194.653  0.00  0.00    -0.060 C 
ATOM    184  H   UNL     1     141.695 176.240 195.080  0.00  0.00    +0.023 HD
ATOM    185  H   UNL     1     143.343 176.596 194.533  0.00  0.00    +0.023 HD
ATOM    186  H   UNL     1     143.036 175.110 195.379  0.00  0.00    +0.023 HD
ENDBRANCH 181 183
BRANCH 181 187
ATOM    187  C   UNL     1     140.723 174.871 193.227  0.00  0.00    -0.046 C 
ATOM    188  H   UNL     1     140.293 175.639 192.579  0.00  0.00    +0.027 HD
ATOM    189  H   UNL     1     140.297 175.005 194.228  0.00  0.00    +0.027 HD
BRANCH 187 190
ATOM    190  C   UNL     1     140.318 173.488 192.681  0.00  0.00    -0.026 C 
ATOM    191  H   UNL     1     140.470 172.750 193.474  0.00  0.00    +0.029 HD
ATOM    192  H   UNL     1     140.997 173.222 191.861  0.00  0.00    +0.029 HD
BRANCH 190 193
ATOM    193  C   UNL     1     138.863 173.283 192.205  0.00  0.00    +0.061 C 
ATOM    194  O   UNL     1     138.487 171.909 192.115  0.00  0.00    -0.373 OA
ATOM    195  C   UNL     1     138.785 171.247 190.892  0.00  0.00    +0.059 C 
ATOM    196  C   UNL     1     138.190 171.981 189.698  0.00  0.00    -0.000 C 
ATOM    197  C   UNL     1     138.692 173.428 189.660  0.00  0.00    +0.063 C 
ATOM    198  C   UNL     1     138.408 174.106 190.999  0.00  0.00    -0.000 C 
ATOM    199  H   UNL     1     138.262 173.650 193.049  0.00  0.00    +0.060 HD
ATOM    200  H   UNL     1     139.871 171.161 190.787  0.00  0.00    +0.059 HD
ATOM    201  H   UNL     1     138.449 171.462 188.769  0.00  0.00    +0.032 HD
ATOM    202  H   UNL     1     137.095 171.994 189.752  0.00  0.00    +0.032 HD
ATOM    203  H   UNL     1     139.764 173.437 189.454  0.00  0.00    +0.060 HD
ATOM    204  H   UNL     1     137.318 174.233 191.070  0.00  0.00    +0.032 HD
ATOM    205  H   UNL     1     138.823 175.120 191.023  0.00  0.00    +0.032 HD
BRANCH 195 206
ATOM    206  C   UNL     1     138.206 169.841 190.983  0.00  0.00    -0.039 C 
ATOM    207  H   UNL     1     137.672 169.578 190.069  0.00  0.00    +0.025 HD
ATOM    208  H   UNL     1     138.996 169.105 191.148  0.00  0.00    +0.025 HD
ATOM    209  H   UNL     1     137.516 169.754 191.825  0.00  0.00    +0.025 HD
ENDBRANCH 195 206
BRANCH 197 210
ATOM    210  O   UNL     1     138.050 174.215 188.649  0.00  0.00    -0.380 OA
BRANCH 210 211
ATOM    211  C   UNL     1     137.180 173.478 187.804  0.00  0.00    +0.037 C 
ATOM    212  H   UNL     1     136.262 174.041 187.631  0.00  0.00    +0.052 HD
ATOM    213  H   UNL     1     137.674 173.343 186.838  0.00  0.00    +0.052 HD
ATOM    214  H   UNL     1     136.954 172.496 188.223  0.00  0.00    +0.052 HD
ENDBRANCH 210 211
ENDBRANCH 197 210
ENDBRANCH 190 193
ENDBRANCH 187 190
ENDBRANCH 181 187
ENDBRANCH 177 181
ENDBRANCH 171 177
ENDBRANCH  22 171
BRANCH  20 215
ATOM    215  O   UNL     1     139.415 178.156 188.474  0.00  0.00    -0.391 OA
ATOM    216  H   UNL     1     139.398 177.315 187.987  0.00  0.00    +0.210 HD
ENDBRANCH  20 215
BRANCH  18 217
ATOM    217  O   UNL     1     137.095 176.823 188.321  0.00  0.00    -0.391 OA
ATOM    218  H   UNL     1     137.112 177.633 187.769  0.00  0.00    +0.210 HD
ENDBRANCH  18 217
BRANCH  10 219
ATOM    219  O   UNL     1     132.928 169.096 187.744  0.00  0.00    -0.391 OA
ATOM    220  H   UNL     1     132.722 168.406 188.399  0.00  0.00    +0.210 HD
ENDBRANCH  10 219
BRANCH  37 221
ATOM    221  O   UNL     1     144.705 173.828 184.764  0.00  0.00    -0.379 OA
BRANCH 221 222
ATOM    222  C   UNL     1     145.386 175.054 184.532  0.00  0.00    +0.037 C 
ATOM    223  H   UNL     1     145.719 175.493 185.478  0.00  0.00    +0.052 HD
ATOM    224  H   UNL     1     144.748 175.765 184.000  0.00  0.00    +0.052 HD
ATOM    225  H   UNL     1     146.268 174.853 183.914  0.00  0.00    +0.052 HD
ENDBRANCH 221 222
ENDBRANCH  37 221
BRANCH  16 226
ATOM    226  O   UNL     1     134.436 176.319 187.777  0.00  0.00    -0.379 OA
BRANCH 226 227
ATOM    227  C   UNL     1     133.774 177.324 187.023  0.00  0.00    +0.037 C 
ATOM    228  H   UNL     1     134.236 178.284 187.268  0.00  0.00    +0.052 HD
ATOM    229  H   UNL     1     133.892 177.154 185.947  0.00  0.00    +0.052 HD
ATOM    230  H   UNL     1     132.714 177.385 187.286  0.00  0.00    +0.052 HD
ENDBRANCH 226 227
ENDBRANCH  16 226
TORSDOF 40
ENDMDL
MODEL 4
REMARK VINA RESULT:      -6.0      2.875      7.422
REMARK  Name = Swinholide A_conf2
REMARK  40 active torsions:
REMARK  status: ('A' for Active; 'I' for Inactive)
REMARK    1  A    between atoms: C_1  and  C_2
REMARK    2  A    between atoms: C_4  and  C_10
REMARK    3  A    between atoms: C_6  and  O_8
REMARK    4  A    between atoms: O_8  and  C_9
REMARK    5  A    between atoms: C_10  and  C_11
REMARK    6  A    between atoms: C_11  and  C_12
REMARK    7  A    between atoms: C_12  and  C_13
REMARK    8  A    between atoms: C_12  and  C_98
REMARK    9  A    between atoms: C_13  and  O_14
REMARK   10  A    between atoms: C_13  and  C_15
REMARK   11  A    between atoms: C_15  and  C_16
REMARK   12  A    between atoms: C_15  and  C_97
REMARK   13  A    between atoms: C_22  and  C_96
REMARK   14  A    between atoms: C_25  and  O_95
REMARK   15  A    between atoms: C_31  and  O_90
REMARK   16  A    between atoms: C_32  and  C_89
REMARK   17  A    between atoms: C_33  and  O_88
REMARK   18  A    between atoms: C_35  and  O_87
REMARK   19  A    between atoms: C_36  and  C_86
REMARK   20  A    between atoms: C_37  and  C_69
REMARK   21  A    between atoms: C_43  and  C_68
REMARK   22  A    between atoms: C_46  and  O_67
REMARK   23  A    between atoms: C_52  and  O_62
REMARK   24  A    between atoms: C_53  and  C_61
REMARK   25  A    between atoms: C_54  and  O_60
REMARK   26  A    between atoms: C_56  and  O_59
REMARK   27  A    between atoms: C_57  and  C_58
REMARK   28  A    between atoms: O_62  and  C_63
REMARK   29  A    between atoms: C_69  and  C_70
REMARK   30  A    between atoms: C_69  and  C_85
REMARK   31  A    between atoms: C_70  and  O_71
REMARK   32  A    between atoms: C_70  and  C_72
REMARK   33  A    between atoms: C_72  and  C_73
REMARK   34  A    between atoms: C_72  and  C_84
REMARK   35  A    between atoms: C_73  and  C_74
REMARK   36  A    between atoms: C_74  and  C_75
REMARK   37  A    between atoms: C_77  and  C_83
REMARK   38  A    between atoms: C_79  and  O_81
REMARK   39  A    between atoms: O_81  and  C_82
REMARK   40  A    between atoms: O_90  and  C_91
REMARK                            x       y       z     vdW  Elec       q    Type
REMARK                         _______ _______ _______ _____ _____    ______ ____
ROOT
ATOM      1  C   UNL     1     142.747 169.244 189.021  0.00  0.00    +0.113 C 
ATOM      2  O   UNL     1     141.319 169.176 188.769  0.00  0.00    -0.458 OA
ATOM      3  C   UNL     1     140.903 169.654 187.572  0.00  0.00    +0.332 C 
ATOM      4  O   UNL     1     141.598 170.100 186.676  0.00  0.00    -0.246 OA
ATOM      5  C   UNL     1     139.425 169.593 187.528  0.00  0.00    +0.023 C 
ATOM      6  C   UNL     1     138.789 169.929 186.395  0.00  0.00    -0.052 C 
ATOM      7  C   UNL     1     137.345 170.006 186.206  0.00  0.00    -0.054 C 
ATOM      8  C   UNL     1     136.485 169.200 186.860  0.00  0.00    -0.079 C 
ATOM      9  C   UNL     1     134.988 169.159 186.680  0.00  0.00    -0.008 C 
ATOM     10  C   UNL     1     134.188 169.604 187.922  0.00  0.00    +0.061 C 
ATOM     11  C   UNL     1     134.296 171.115 188.178  0.00  0.00    +0.003 C 
ATOM     12  C   UNL     1     133.339 171.649 189.266  0.00  0.00    +0.080 C 
ATOM     13  O   UNL     1     133.884 172.838 189.881  0.00  0.00    -0.369 OA
ATOM     14  C   UNL     1     133.713 174.034 189.097  0.00  0.00    +0.065 C 
ATOM     15  C   UNL     1     134.471 175.156 189.829  0.00  0.00    +0.000 C 
ATOM     16  C   UNL     1     134.311 176.562 189.209  0.00  0.00    +0.066 C 
ATOM     17  C   UNL     1     135.301 177.621 189.806  0.00  0.00    +0.009 C 
ATOM     18  C   UNL     1     136.794 177.230 189.682  0.00  0.00    +0.063 C 
ATOM     19  C   UNL     1     137.764 178.322 190.199  0.00  0.00    -0.000 C 
ATOM     20  C   UNL     1     139.214 177.931 189.874  0.00  0.00    +0.064 C 
ATOM     21  C   UNL     1     140.276 178.603 190.784  0.00  0.00    +0.020 C 
ATOM     22  C   UNL     1     141.668 177.898 190.704  0.00  0.00    +0.113 C 
ATOM     23  O   UNL     1     142.072 178.042 189.313  0.00  0.00    -0.458 OA
ATOM     24  C   UNL     1     143.340 178.385 189.005  0.00  0.00    +0.332 C 
ATOM     25  O   UNL     1     144.294 178.450 189.781  0.00  0.00    -0.246 OA
ATOM     26  C   UNL     1     143.473 178.681 187.562  0.00  0.00    +0.023 C 
ATOM     27  C   UNL     1     142.482 178.486 186.666  0.00  0.00    -0.052 C 
ATOM     28  C   UNL     1     142.520 178.730 185.226  0.00  0.00    -0.054 C 
ATOM     29  C   UNL     1     141.445 178.367 184.495  0.00  0.00    -0.079 C 
ATOM     30  C   UNL     1     141.265 178.430 183.006  0.00  0.00    -0.008 C 
ATOM     31  C   UNL     1     140.715 177.152 182.340  0.00  0.00    +0.061 C 
ATOM     32  C   UNL     1     141.597 175.889 182.428  0.00  0.00    +0.003 C 
ATOM     33  C   UNL     1     141.498 174.936 183.636  0.00  0.00    +0.080 C 
ATOM     34  O   UNL     1     142.075 175.542 184.796  0.00  0.00    -0.369 OA
ATOM     35  C   UNL     1     141.902 174.814 186.016  0.00  0.00    +0.065 C 
ATOM     36  C   UNL     1     142.672 173.482 186.053  0.00  0.00    +0.000 C 
ATOM     37  C   UNL     1     144.203 173.705 186.097  0.00  0.00    +0.066 C 
ATOM     38  C   UNL     1     144.926 172.494 186.752  0.00  0.00    +0.009 C 
ATOM     39  C   UNL     1     144.922 172.561 188.309  0.00  0.00    +0.063 C 
ATOM     40  C   UNL     1     145.240 171.187 188.954  0.00  0.00    -0.000 C 
ATOM     41  C   UNL     1     144.467 170.803 190.223  0.00  0.00    +0.064 C 
ATOM     42  C   UNL     1     142.980 170.419 190.021  0.00  0.00    +0.020 C 
ATOM     43  C   UNL     1     140.404 174.659 186.332  0.00  0.00    -0.008 C 
ATOM     44  C   UNL     1     139.591 174.298 185.126  0.00  0.00    -0.083 C 
ATOM     45  C   UNL     1     140.107 174.418 183.900  0.00  0.00    -0.059 C 
ATOM     46  C   UNL     1     132.220 174.353 188.932  0.00  0.00    -0.008 C 
ATOM     47  C   UNL     1     131.428 173.131 188.580  0.00  0.00    -0.083 C 
ATOM     48  C   UNL     1     131.941 171.907 188.753  0.00  0.00    -0.059 C 
ATOM     49  H   UNL     1     143.258 169.537 188.106  0.00  0.00    +0.074 HD
ATOM     50  H   UNL     1     138.914 169.309 188.435  0.00  0.00    +0.069 HD
ATOM     51  H   UNL     1     139.381 170.227 185.530  0.00  0.00    +0.062 HD
ATOM     52  H   UNL     1     136.871 168.455 187.555  0.00  0.00    +0.058 HD
ATOM     53  H   UNL     1     134.721 168.122 186.437  0.00  0.00    +0.033 HD
ATOM     54  H   UNL     1     134.655 169.733 185.812  0.00  0.00    +0.033 HD
ATOM     55  H   UNL     1     134.548 169.065 188.802  0.00  0.00    +0.060 HD
ATOM     56  H   UNL     1     135.327 171.359 188.456  0.00  0.00    +0.032 HD
ATOM     57  H   UNL     1     134.104 171.659 187.245  0.00  0.00    +0.032 HD
ATOM     58  H   UNL     1     133.276 170.918 190.078  0.00  0.00    +0.064 HD
ATOM     59  H   UNL     1     134.182 173.879 188.118  0.00  0.00    +0.060 HD
ATOM     60  H   UNL     1     134.165 175.186 190.882  0.00  0.00    +0.032 HD
ATOM     61  H   UNL     1     135.526 174.857 189.836  0.00  0.00    +0.032 HD
ATOM     62  H   UNL     1     133.288 176.903 189.427  0.00  0.00    +0.060 HD
ATOM     63  H   UNL     1     135.168 178.541 189.226  0.00  0.00    +0.035 HD
ATOM     64  H   UNL     1     136.990 176.331 190.281  0.00  0.00    +0.060 HD
ATOM     65  H   UNL     1     137.641 178.436 191.284  0.00  0.00    +0.032 HD
ATOM     66  H   UNL     1     137.524 179.278 189.725  0.00  0.00    +0.032 HD
ATOM     67  H   UNL     1     139.284 176.849 189.989  0.00  0.00    +0.060 HD
ATOM     68  H   UNL     1     139.904 178.533 191.811  0.00  0.00    +0.036 HD
ATOM     69  H   UNL     1     142.373 178.437 191.349  0.00  0.00    +0.074 HD
ATOM     70  H   UNL     1     144.451 179.045 187.272  0.00  0.00    +0.069 HD
ATOM     71  H   UNL     1     141.545 178.064 187.027  0.00  0.00    +0.062 HD
ATOM     72  H   UNL     1     140.593 177.924 185.017  0.00  0.00    +0.058 HD
ATOM     73  H   UNL     1     140.560 179.249 182.808  0.00  0.00    +0.033 HD
ATOM     74  H   UNL     1     142.197 178.691 182.501  0.00  0.00    +0.033 HD
ATOM     75  H   UNL     1     140.680 177.400 181.272  0.00  0.00    +0.060 HD
ATOM     76  H   UNL     1     142.645 176.196 182.315  0.00  0.00    +0.032 HD
ATOM     77  H   UNL     1     141.360 175.285 181.547  0.00  0.00    +0.032 HD
ATOM     78  H   UNL     1     142.125 174.076 183.377  0.00  0.00    +0.064 HD
ATOM     79  H   UNL     1     142.315 175.450 186.810  0.00  0.00    +0.060 HD
ATOM     80  H   UNL     1     142.417 172.858 185.189  0.00  0.00    +0.032 HD
ATOM     81  H   UNL     1     142.336 172.927 186.936  0.00  0.00    +0.032 HD
ATOM     82  H   UNL     1     144.446 174.610 186.668  0.00  0.00    +0.060 HD
ATOM     83  H   UNL     1     144.390 171.590 186.435  0.00  0.00    +0.035 HD
ATOM     84  H   UNL     1     145.703 173.268 188.619  0.00  0.00    +0.060 HD
ATOM     85  H   UNL     1     146.311 171.208 189.210  0.00  0.00    +0.032 HD
ATOM     86  H   UNL     1     145.161 170.390 188.213  0.00  0.00    +0.032 HD
ATOM     87  H   UNL     1     144.972 169.959 190.704  0.00  0.00    +0.060 HD
ATOM     88  H   UNL     1     142.456 171.282 189.588  0.00  0.00    +0.036 HD
ATOM     89  H   UNL     1     140.250 173.915 187.122  0.00  0.00    +0.033 HD
ATOM     90  H   UNL     1     140.012 175.616 186.700  0.00  0.00    +0.033 HD
ATOM     91  H   UNL     1     138.564 173.978 185.271  0.00  0.00    +0.057 HD
ATOM     92  H   UNL     1     139.501 174.155 183.033  0.00  0.00    +0.059 HD
ATOM     93  H   UNL     1     131.809 174.771 189.856  0.00  0.00    +0.033 HD
ATOM     94  H   UNL     1     132.086 175.104 188.144  0.00  0.00    +0.033 HD
ATOM     95  H   UNL     1     130.421 173.260 188.207  0.00  0.00    +0.057 HD
ATOM     96  H   UNL     1     131.341 171.038 188.496  0.00  0.00    +0.059 HD
ENDROOT
BRANCH  28  97
ATOM     97  C   UNL     1     143.766 179.353 184.651  0.00  0.00    -0.040 C 
ATOM     98  H   UNL     1     143.656 179.497 183.572  0.00  0.00    +0.028 HD
ATOM     99  H   UNL     1     144.662 178.737 184.776  0.00  0.00    +0.028 HD
ATOM    100  H   UNL     1     143.970 180.322 185.119  0.00  0.00    +0.028 HD
ENDBRANCH  28  97
BRANCH  21 101
ATOM    101  C   UNL     1     140.435 180.101 190.491  0.00  0.00    -0.057 C 
ATOM    102  H   UNL     1     139.644 180.461 189.828  0.00  0.00    +0.023 HD
ATOM    103  H   UNL     1     140.375 180.676 191.418  0.00  0.00    +0.023 HD
ATOM    104  H   UNL     1     141.395 180.337 190.023  0.00  0.00    +0.023 HD
ENDBRANCH  21 101
BRANCH  42 105
ATOM    105  C   UNL     1     142.284 170.235 191.381  0.00  0.00    -0.057 C 
ATOM    106  H   UNL     1     141.208 170.094 191.265  0.00  0.00    +0.023 HD
ATOM    107  H   UNL     1     142.473 171.075 192.054  0.00  0.00    +0.023 HD
ATOM    108  H   UNL     1     142.660 169.335 191.873  0.00  0.00    +0.023 HD
ENDBRANCH  42 105
BRANCH  17 109
ATOM    109  C   UNL     1     134.926 177.950 191.255  0.00  0.00    -0.058 C 
ATOM    110  H   UNL     1     134.736 177.046 191.832  0.00  0.00    +0.023 HD
ATOM    111  H   UNL     1     134.008 178.545 191.287  0.00  0.00    +0.023 HD
ATOM    112  H   UNL     1     135.709 178.519 191.756  0.00  0.00    +0.023 HD
ENDBRANCH  17 109
BRANCH  38 113
ATOM    113  C   UNL     1     146.380 172.329 186.274  0.00  0.00    -0.058 C 
ATOM    114  H   UNL     1     146.878 171.472 186.743  0.00  0.00    +0.023 HD
ATOM    115  H   UNL     1     146.417 172.186 185.182  0.00  0.00    +0.023 HD
ATOM    116  H   UNL     1     146.980 173.212 186.511  0.00  0.00    +0.023 HD
ENDBRANCH  38 113
BRANCH   7 117
ATOM    117  C   UNL     1     136.905 171.032 185.194  0.00  0.00    -0.040 C 
ATOM    118  H   UNL     1     137.050 170.651 184.180  0.00  0.00    +0.028 HD
ATOM    119  H   UNL     1     137.478 171.959 185.292  0.00  0.00    +0.028 HD
ATOM    120  H   UNL     1     135.851 171.305 185.318  0.00  0.00    +0.028 HD
ENDBRANCH   7 117
BRANCH   1 121
ATOM    121  C   UNL     1     143.297 167.836 189.394  0.00  0.00    +0.020 C 
ATOM    122  H   UNL     1     143.875 167.919 190.320  0.00  0.00    +0.036 HD
BRANCH 121 123
ATOM    123  C   UNL     1     142.199 166.791 189.666  0.00  0.00    -0.057 C 
ATOM    124  H   UNL     1     141.512 166.678 188.823  0.00  0.00    +0.023 HD
ATOM    125  H   UNL     1     142.633 165.810 189.883  0.00  0.00    +0.023 HD
ATOM    126  H   UNL     1     141.623 167.050 190.556  0.00  0.00    +0.023 HD
ENDBRANCH 121 123
BRANCH 121 127
ATOM    127  C   UNL     1     144.253 167.253 188.298  0.00  0.00    +0.064 C 
ATOM    128  H   UNL     1     143.746 166.410 187.810  0.00  0.00    +0.060 HD
BRANCH 127 129
ATOM    129  C   UNL     1     145.625 166.726 188.809  0.00  0.00    -0.017 C 
ATOM    130  H   UNL     1     145.464 165.857 189.454  0.00  0.00    +0.032 HD
BRANCH 129 131
ATOM    131  C   UNL     1     146.532 166.303 187.648  0.00  0.00    -0.060 C 
ATOM    132  H   UNL     1     147.467 166.868 187.624  0.00  0.00    +0.023 HD
ATOM    133  H   UNL     1     146.783 165.238 187.709  0.00  0.00    +0.023 HD
ATOM    134  H   UNL     1     146.036 166.477 186.686  0.00  0.00    +0.023 HD
ENDBRANCH 129 131
BRANCH 129 135
ATOM    135  C   UNL     1     146.402 167.764 189.658  0.00  0.00    -0.046 C 
ATOM    136  H   UNL     1     147.438 167.782 189.298  0.00  0.00    +0.027 HD
ATOM    137  H   UNL     1     146.001 168.771 189.491  0.00  0.00    +0.027 HD
BRANCH 135 138
ATOM    138  C   UNL     1     146.414 167.470 191.164  0.00  0.00    -0.026 C 
ATOM    139  H   UNL     1     147.396 167.711 191.581  0.00  0.00    +0.029 HD
ATOM    140  H   UNL     1     145.687 168.124 191.661  0.00  0.00    +0.029 HD
BRANCH 138 143
ATOM    141  C   UNL     1     144.402 166.315 193.153  0.00  0.00    +0.059 C 
ATOM    142  O   UNL     1     144.754 165.786 191.870  0.00  0.00    -0.373 OA
ATOM    143  C   UNL     1     146.116 165.994 191.480  0.00  0.00    +0.061 C 
ATOM    144  C   UNL     1     147.061 165.409 192.531  0.00  0.00    -0.000 C 
ATOM    145  C   UNL     1     146.757 165.945 193.928  0.00  0.00    +0.063 C 
ATOM    146  C   UNL     1     145.281 165.720 194.246  0.00  0.00    -0.000 C 
ATOM    147  H   UNL     1     144.503 167.405 193.130  0.00  0.00    +0.059 HD
ATOM    148  H   UNL     1     146.251 165.426 190.550  0.00  0.00    +0.060 HD
ATOM    149  H   UNL     1     146.944 164.316 192.543  0.00  0.00    +0.032 HD
ATOM    150  H   UNL     1     148.107 165.596 192.265  0.00  0.00    +0.032 HD
ATOM    151  H   UNL     1     146.994 167.016 193.964  0.00  0.00    +0.060 HD
ATOM    152  H   UNL     1     145.020 166.152 195.220  0.00  0.00    +0.032 HD
ATOM    153  H   UNL     1     145.101 164.638 194.332  0.00  0.00    +0.032 HD
BRANCH 141 154
ATOM    154  C   UNL     1     142.936 165.987 193.389  0.00  0.00    -0.039 C 
ATOM    155  H   UNL     1     142.798 164.936 193.662  0.00  0.00    +0.025 HD
ATOM    156  H   UNL     1     142.528 166.613 194.192  0.00  0.00    +0.025 HD
ATOM    157  H   UNL     1     142.340 166.200 192.495  0.00  0.00    +0.025 HD
ENDBRANCH 141 154
BRANCH 145 158
ATOM    158  O   UNL     1     147.615 165.259 194.844  0.00  0.00    -0.380 OA
BRANCH 158 159
ATOM    159  C   UNL     1     147.673 165.869 196.128  0.00  0.00    +0.037 C 
ATOM    160  H   UNL     1     148.724 165.957 196.413  0.00  0.00    +0.052 HD
ATOM    161  H   UNL     1     147.170 165.249 196.871  0.00  0.00    +0.052 HD
ATOM    162  H   UNL     1     147.238 166.872 196.114  0.00  0.00    +0.052 HD
ENDBRANCH 158 159
ENDBRANCH 145 158
ENDBRANCH 138 143
ENDBRANCH 135 138
ENDBRANCH 129 135
ENDBRANCH 127 129
BRANCH 127 163
ATOM    163  O   UNL     1     144.470 168.236 187.288  0.00  0.00    -0.391 OA
ATOM    164  H   UNL     1     143.668 168.778 187.215  0.00  0.00    +0.210 HD
ENDBRANCH 127 163
ENDBRANCH 121 127
ENDBRANCH   1 121
BRANCH  41 165
ATOM    165  O   UNL     1     144.549 171.910 191.135  0.00  0.00    -0.391 OA
ATOM    166  H   UNL     1     143.676 172.000 191.558  0.00  0.00    +0.210 HD
ENDBRANCH  41 165
BRANCH  39 167
ATOM    167  O   UNL     1     143.713 173.110 188.797  0.00  0.00    -0.391 OA
ATOM    168  H   UNL     1     143.879 173.402 189.719  0.00  0.00    +0.210 HD
ENDBRANCH  39 167
BRANCH  31 169
ATOM    169  O   UNL     1     139.357 176.889 182.681  0.00  0.00    -0.391 OA
ATOM    170  H   UNL     1     138.858 176.725 181.861  0.00  0.00    +0.210 HD
ENDBRANCH  31 169
BRANCH  22 171
ATOM    171  C   UNL     1     141.675 176.382 191.087  0.00  0.00    +0.020 C 
ATOM    172  H   UNL     1     140.692 176.154 191.504  0.00  0.00    +0.036 HD
BRANCH 171 173
ATOM    173  C   UNL     1     141.757 175.491 189.834  0.00  0.00    -0.057 C 
ATOM    174  H   UNL     1     140.809 174.968 189.661  0.00  0.00    +0.023 HD
ATOM    175  H   UNL     1     141.966 176.088 188.938  0.00  0.00    +0.023 HD
ATOM    176  H   UNL     1     142.560 174.752 189.917  0.00  0.00    +0.023 HD
ENDBRANCH 171 173
BRANCH 171 177
ATOM    177  C   UNL     1     142.783 175.901 192.088  0.00  0.00    +0.064 C 
ATOM    178  H   UNL     1     143.495 175.260 191.549  0.00  0.00    +0.060 HD
BRANCH 177 179
ATOM    179  O   UNL     1     143.560 177.003 192.554  0.00  0.00    -0.391 OA
ATOM    180  H   UNL     1     143.238 177.804 192.104  0.00  0.00    +0.210 HD
ENDBRANCH 177 179
BRANCH 177 181
ATOM    181  C   UNL     1     142.236 175.088 193.312  0.00  0.00    -0.017 C 
ATOM    182  H   UNL     1     142.702 174.092 193.292  0.00  0.00    +0.032 HD
BRANCH 181 183
ATOM    183  C   UNL     1     142.591 175.777 194.641  0.00  0.00    -0.060 C 
ATOM    184  H   UNL     1     142.912 175.025 195.370  0.00  0.00    +0.023 HD
ATOM    185  H   UNL     1     141.754 176.333 195.069  0.00  0.00    +0.023 HD
ATOM    186  H   UNL     1     143.391 176.510 194.515  0.00  0.00    +0.023 HD
ENDBRANCH 181 183
BRANCH 181 187
ATOM    187  C   UNL     1     140.695 174.883 193.214  0.00  0.00    -0.046 C 
ATOM    188  H   UNL     1     140.276 175.647 192.553  0.00  0.00    +0.027 HD
ATOM    189  H   UNL     1     140.271 175.040 194.213  0.00  0.00    +0.027 HD
BRANCH 187 190
ATOM    190  C   UNL     1     140.270 173.497 192.691  0.00  0.00    -0.026 C 
ATOM    191  H   UNL     1     140.407 172.772 193.498  0.00  0.00    +0.029 HD
ATOM    192  H   UNL     1     140.947 173.207 191.879  0.00  0.00    +0.029 HD
BRANCH 190 193
ATOM    193  C   UNL     1     138.813 173.308 192.214  0.00  0.00    +0.061 C 
ATOM    194  O   UNL     1     138.426 171.937 192.117  0.00  0.00    -0.373 OA
ATOM    195  C   UNL     1     138.718 171.279 190.890  0.00  0.00    +0.059 C 
ATOM    196  C   UNL     1     138.130 172.023 189.700  0.00  0.00    -0.000 C 
ATOM    197  C   UNL     1     138.644 173.466 189.669  0.00  0.00    +0.063 C 
ATOM    198  C   UNL     1     138.365 174.140 191.011  0.00  0.00    -0.000 C 
ATOM    199  H   UNL     1     138.215 173.676 193.059  0.00  0.00    +0.060 HD
ATOM    200  H   UNL     1     139.804 171.184 190.785  0.00  0.00    +0.059 HD
ATOM    201  H   UNL     1     138.385 171.507 188.769  0.00  0.00    +0.032 HD
ATOM    202  H   UNL     1     137.035 172.045 189.754  0.00  0.00    +0.032 HD
ATOM    203  H   UNL     1     139.717 173.467 189.464  0.00  0.00    +0.060 HD
ATOM    204  H   UNL     1     137.277 174.276 191.083  0.00  0.00    +0.032 HD
ATOM    205  H   UNL     1     138.789 175.150 191.041  0.00  0.00    +0.032 HD
BRANCH 195 206
ATOM    206  C   UNL     1     138.127 169.877 190.975  0.00  0.00    -0.039 C 
ATOM    207  H   UNL     1     137.286 169.766 190.288  0.00  0.00    +0.025 HD
ATOM    208  H   UNL     1     138.879 169.123 190.729  0.00  0.00    +0.025 HD
ATOM    209  H   UNL     1     137.780 169.657 191.987  0.00  0.00    +0.025 HD
ENDBRANCH 195 206
BRANCH 197 210
ATOM    210  O   UNL     1     138.009 174.264 188.662  0.00  0.00    -0.380 OA
BRANCH 210 211
ATOM    211  C   UNL     1     137.139 173.537 187.808  0.00  0.00    +0.037 C 
ATOM    212  H   UNL     1     137.213 173.917 186.789  0.00  0.00    +0.052 HD
ATOM    213  H   UNL     1     137.463 172.493 187.798  0.00  0.00    +0.052 HD
ATOM    214  H   UNL     1     136.107 173.581 188.160  0.00  0.00    +0.052 HD
ENDBRANCH 210 211
ENDBRANCH 197 210
ENDBRANCH 190 193
ENDBRANCH 187 190
ENDBRANCH 181 187
ENDBRANCH 177 181
ENDBRANCH 171 177
ENDBRANCH  22 171
BRANCH  20 215
ATOM    215  O   UNL     1     139.412 178.204 188.480  0.00  0.00    -0.391 OA
ATOM    216  H   UNL     1     138.990 179.053 188.265  0.00  0.00    +0.210 HD
ENDBRANCH  20 215
BRANCH  18 217
ATOM    217  O   UNL     1     137.078 176.896 188.327  0.00  0.00    -0.391 OA
ATOM    218  H   UNL     1     137.144 177.712 187.786  0.00  0.00    +0.210 HD
ENDBRANCH  18 217
BRANCH  10 219
ATOM    219  O   UNL     1     132.827 169.217 187.723  0.00  0.00    -0.391 OA
ATOM    220  H   UNL     1     132.605 169.382 186.789  0.00  0.00    +0.210 HD
ENDBRANCH  10 219
BRANCH  37 221
ATOM    221  O   UNL     1     144.647 173.838 184.737  0.00  0.00    -0.379 OA
BRANCH 221 222
ATOM    222  C   UNL     1     145.336 175.060 184.507  0.00  0.00    +0.037 C 
ATOM    223  H   UNL     1     144.955 175.552 183.607  0.00  0.00    +0.052 HD
ATOM    224  H   UNL     1     146.413 174.894 184.408  0.00  0.00    +0.052 HD
ATOM    225  H   UNL     1     145.168 175.723 185.363  0.00  0.00    +0.052 HD
ENDBRANCH 221 222
ENDBRANCH  37 221
BRANCH  16 226
ATOM    226  O   UNL     1     134.412 176.423 187.786  0.00  0.00    -0.379 OA
BRANCH 226 227
ATOM    227  C   UNL     1     133.759 177.439 187.040  0.00  0.00    +0.037 C 
ATOM    228  H   UNL     1     134.480 178.241 186.864  0.00  0.00    +0.052 HD
ATOM    229  H   UNL     1     133.426 177.061 186.066  0.00  0.00    +0.052 HD
ATOM    230  H   UNL     1     132.916 177.861 187.594  0.00  0.00    +0.052 HD
ENDBRANCH 226 227
ENDBRANCH  16 226
TORSDOF 40
ENDMDL
MODEL 5
REMARK VINA RESULT:      -5.9      1.988      3.125
REMARK  Name = Swinholide A_conf2
REMARK  40 active torsions:
REMARK  status: ('A' for Active; 'I' for Inactive)
REMARK    1  A    between atoms: C_1  and  C_2
REMARK    2  A    between atoms: C_4  and  C_10
REMARK    3  A    between atoms: C_6  and  O_8
REMARK    4  A    between atoms: O_8  and  C_9
REMARK    5  A    between atoms: C_10  and  C_11
REMARK    6  A    between atoms: C_11  and  C_12
REMARK    7  A    between atoms: C_12  and  C_13
REMARK    8  A    between atoms: C_12  and  C_98
REMARK    9  A    between atoms: C_13  and  O_14
REMARK   10  A    between atoms: C_13  and  C_15
REMARK   11  A    between atoms: C_15  and  C_16
REMARK   12  A    between atoms: C_15  and  C_97
REMARK   13  A    between atoms: C_22  and  C_96
REMARK   14  A    between atoms: C_25  and  O_95
REMARK   15  A    between atoms: C_31  and  O_90
REMARK   16  A    between atoms: C_32  and  C_89
REMARK   17  A    between atoms: C_33  and  O_88
REMARK   18  A    between atoms: C_35  and  O_87
REMARK   19  A    between atoms: C_36  and  C_86
REMARK   20  A    between atoms: C_37  and  C_69
REMARK   21  A    between atoms: C_43  and  C_68
REMARK   22  A    between atoms: C_46  and  O_67
REMARK   23  A    between atoms: C_52  and  O_62
REMARK   24  A    between atoms: C_53  and  C_61
REMARK   25  A    between atoms: C_54  and  O_60
REMARK   26  A    between atoms: C_56  and  O_59
REMARK   27  A    between atoms: C_57  and  C_58
REMARK   28  A    between atoms: O_62  and  C_63
REMARK   29  A    between atoms: C_69  and  C_70
REMARK   30  A    between atoms: C_69  and  C_85
REMARK   31  A    between atoms: C_70  and  O_71
REMARK   32  A    between atoms: C_70  and  C_72
REMARK   33  A    between atoms: C_72  and  C_73
REMARK   34  A    between atoms: C_72  and  C_84
REMARK   35  A    between atoms: C_73  and  C_74
REMARK   36  A    between atoms: C_74  and  C_75
REMARK   37  A    between atoms: C_77  and  C_83
REMARK   38  A    between atoms: C_79  and  O_81
REMARK   39  A    between atoms: O_81  and  C_82
REMARK   40  A    between atoms: O_90  and  C_91
REMARK                            x       y       z     vdW  Elec       q    Type
REMARK                         _______ _______ _______ _____ _____    ______ ____
ROOT
ATOM      1  C   UNL     1     143.833 167.830 189.462  0.00  0.00    +0.113 C 
ATOM      2  O   UNL     1     143.450 169.013 190.210  0.00  0.00    -0.458 OA
ATOM      3  C   UNL     1     142.121 169.267 190.283  0.00  0.00    +0.332 C 
ATOM      4  O   UNL     1     141.218 168.592 189.821  0.00  0.00    -0.246 OA
ATOM      5  C   UNL     1     141.924 170.550 190.993  0.00  0.00    +0.023 C 
ATOM      6  C   UNL     1     140.677 170.960 191.269  0.00  0.00    -0.052 C 
ATOM      7  C   UNL     1     140.303 172.230 191.883  0.00  0.00    -0.054 C 
ATOM      8  C   UNL     1     141.081 172.854 192.788  0.00  0.00    -0.079 C 
ATOM      9  C   UNL     1     140.749 174.127 193.525  0.00  0.00    -0.008 C 
ATOM     10  C   UNL     1     141.664 175.319 193.176  0.00  0.00    +0.061 C 
ATOM     11  C   UNL     1     141.409 175.860 191.760  0.00  0.00    +0.003 C 
ATOM     12  C   UNL     1     142.133 177.186 191.443  0.00  0.00    +0.080 C 
ATOM     13  O   UNL     1     142.374 177.304 190.022  0.00  0.00    -0.369 OA
ATOM     14  C   UNL     1     141.220 177.714 189.264  0.00  0.00    +0.065 C 
ATOM     15  C   UNL     1     141.619 177.646 187.779  0.00  0.00    +0.000 C 
ATOM     16  C   UNL     1     140.549 178.166 186.793  0.00  0.00    +0.066 C 
ATOM     17  C   UNL     1     140.869 177.834 185.295  0.00  0.00    +0.009 C 
ATOM     18  C   UNL     1     141.063 176.324 185.010  0.00  0.00    +0.063 C 
ATOM     19  C   UNL     1     141.296 176.002 183.513  0.00  0.00    -0.000 C 
ATOM     20  C   UNL     1     141.296 174.481 183.298  0.00  0.00    +0.064 C 
ATOM     21  C   UNL     1     142.047 174.017 182.023  0.00  0.00    +0.020 C 
ATOM     22  C   UNL     1     142.375 172.489 182.042  0.00  0.00    +0.113 C 
ATOM     23  O   UNL     1     141.075 171.837 182.094  0.00  0.00    -0.458 OA
ATOM     24  C   UNL     1     140.823 170.759 181.321  0.00  0.00    +0.332 C 
ATOM     25  O   UNL     1     141.641 170.127 180.651  0.00  0.00    -0.246 OA
ATOM     26  C   UNL     1     139.391 170.393 181.374  0.00  0.00    +0.023 C 
ATOM     27  C   UNL     1     138.501 170.978 182.202  0.00  0.00    -0.052 C 
ATOM     28  C   UNL     1     137.079 170.678 182.341  0.00  0.00    -0.054 C 
ATOM     29  C   UNL     1     136.389 171.316 183.310  0.00  0.00    -0.079 C 
ATOM     30  C   UNL     1     134.954 171.128 183.712  0.00  0.00    -0.008 C 
ATOM     31  C   UNL     1     134.695 170.968 185.224  0.00  0.00    +0.061 C 
ATOM     32  C   UNL     1     135.306 169.726 185.905  0.00  0.00    +0.003 C 
ATOM     33  C   UNL     1     136.743 169.754 186.465  0.00  0.00    +0.080 C 
ATOM     34  O   UNL     1     137.692 169.759 185.395  0.00  0.00    -0.369 OA
ATOM     35  C   UNL     1     139.056 169.942 185.789  0.00  0.00    +0.065 C 
ATOM     36  C   UNL     1     139.629 168.760 186.592  0.00  0.00    +0.000 C 
ATOM     37  C   UNL     1     139.778 167.491 185.718  0.00  0.00    +0.066 C 
ATOM     38  C   UNL     1     140.883 166.552 186.280  0.00  0.00    +0.009 C 
ATOM     39  C   UNL     1     142.314 166.970 185.829  0.00  0.00    +0.063 C 
ATOM     40  C   UNL     1     143.416 166.327 186.712  0.00  0.00    -0.000 C 
ATOM     41  C   UNL     1     144.639 167.187 187.060  0.00  0.00    +0.064 C 
ATOM     42  C   UNL     1     144.401 168.317 188.093  0.00  0.00    +0.020 C 
ATOM     43  C   UNL     1     139.224 171.297 186.498  0.00  0.00    -0.008 C 
ATOM     44  C   UNL     1     138.121 171.584 187.471  0.00  0.00    -0.083 C 
ATOM     45  C   UNL     1     136.997 170.863 187.453  0.00  0.00    -0.059 C 
ATOM     46  C   UNL     1     140.781 179.124 189.684  0.00  0.00    -0.008 C 
ATOM     47  C   UNL     1     140.768 179.279 191.175  0.00  0.00    -0.083 C 
ATOM     48  C   UNL     1     141.401 178.402 191.962  0.00  0.00    -0.059 C 
ATOM     49  H   UNL     1     142.940 167.257 189.217  0.00  0.00    +0.074 HD
ATOM     50  H   UNL     1     142.807 171.124 191.232  0.00  0.00    +0.069 HD
ATOM     51  H   UNL     1     139.839 170.331 190.972  0.00  0.00    +0.062 HD
ATOM     52  H   UNL     1     142.026 172.401 193.086  0.00  0.00    +0.058 HD
ATOM     53  H   UNL     1     140.837 173.912 194.598  0.00  0.00    +0.033 HD
ATOM     54  H   UNL     1     139.704 174.425 193.395  0.00  0.00    +0.033 HD
ATOM     55  H   UNL     1     142.710 175.014 193.260  0.00  0.00    +0.060 HD
ATOM     56  H   UNL     1     141.711 175.102 191.028  0.00  0.00    +0.032 HD
ATOM     57  H   UNL     1     140.333 176.004 191.611  0.00  0.00    +0.032 HD
ATOM     58  H   UNL     1     143.130 177.168 191.895  0.00  0.00    +0.064 HD
ATOM     59  H   UNL     1     140.413 176.993 189.441  0.00  0.00    +0.060 HD
ATOM     60  H   UNL     1     142.556 178.192 187.620  0.00  0.00    +0.032 HD
ATOM     61  H   UNL     1     141.852 176.594 187.573  0.00  0.00    +0.032 HD
ATOM     62  H   UNL     1     140.516 179.261 186.891  0.00  0.00    +0.060 HD
ATOM     63  H   UNL     1     140.004 178.156 184.707  0.00  0.00    +0.035 HD
ATOM     64  H   UNL     1     141.947 175.959 185.548  0.00  0.00    +0.060 HD
ATOM     65  H   UNL     1     142.257 176.427 183.193  0.00  0.00    +0.032 HD
ATOM     66  H   UNL     1     140.504 176.461 182.913  0.00  0.00    +0.032 HD
ATOM     67  H   UNL     1     141.774 174.038 184.172  0.00  0.00    +0.060 HD
ATOM     68  H   UNL     1     142.986 174.577 181.985  0.00  0.00    +0.036 HD
ATOM     69  H   UNL     1     142.882 172.226 181.105  0.00  0.00    +0.074 HD
ATOM     70  H   UNL     1     139.115 169.586 180.705  0.00  0.00    +0.069 HD
ATOM     71  H   UNL     1     138.869 171.744 182.885  0.00  0.00    +0.062 HD
ATOM     72  H   UNL     1     136.923 172.037 183.933  0.00  0.00    +0.058 HD
ATOM     73  H   UNL     1     134.411 172.017 183.364  0.00  0.00    +0.033 HD
ATOM     74  H   UNL     1     134.507 170.270 183.207  0.00  0.00    +0.033 HD
ATOM     75  H   UNL     1     133.610 170.827 185.297  0.00  0.00    +0.060 HD
ATOM     76  H   UNL     1     135.223 168.880 185.210  0.00  0.00    +0.032 HD
ATOM     77  H   UNL     1     134.657 169.488 186.754  0.00  0.00    +0.032 HD
ATOM     78  H   UNL     1     136.864 168.805 186.997  0.00  0.00    +0.064 HD
ATOM     79  H   UNL     1     139.634 170.013 184.858  0.00  0.00    +0.060 HD
ATOM     80  H   UNL     1     139.001 168.536 187.461  0.00  0.00    +0.032 HD
ATOM     81  H   UNL     1     140.600 169.070 186.994  0.00  0.00    +0.032 HD
ATOM     82  H   UNL     1     140.037 167.761 184.686  0.00  0.00    +0.060 HD
ATOM     83  H   UNL     1     140.825 166.608 187.375  0.00  0.00    +0.035 HD
ATOM     84  H   UNL     1     142.460 166.618 184.799  0.00  0.00    +0.060 HD
ATOM     85  H   UNL     1     143.776 165.444 186.160  0.00  0.00    +0.032 HD
ATOM     86  H   UNL     1     142.981 165.910 187.622  0.00  0.00    +0.032 HD
ATOM     87  H   UNL     1     145.431 166.537 187.444  0.00  0.00    +0.060 HD
ATOM     88  H   UNL     1     143.644 169.002 187.687  0.00  0.00    +0.036 HD
ATOM     89  H   UNL     1     140.194 171.350 187.007  0.00  0.00    +0.033 HD
ATOM     90  H   UNL     1     139.201 172.101 185.751  0.00  0.00    +0.033 HD
ATOM     91  H   UNL     1     138.242 172.414 188.159  0.00  0.00    +0.057 HD
ATOM     92  H   UNL     1     136.203 171.087 188.165  0.00  0.00    +0.059 HD
ATOM     93  H   UNL     1     141.455 179.880 189.269  0.00  0.00    +0.033 HD
ATOM     94  H   UNL     1     139.777 179.331 189.295  0.00  0.00    +0.033 HD
ATOM     95  H   UNL     1     140.255 180.132 191.599  0.00  0.00    +0.057 HD
ATOM     96  H   UNL     1     141.380 178.543 193.039  0.00  0.00    +0.059 HD
ENDROOT
BRANCH  28  97
ATOM     97  C   UNL     1     136.481 169.659 181.404  0.00  0.00    -0.040 C 
ATOM     98  H   UNL     1     136.020 170.157 180.545  0.00  0.00    +0.028 HD
ATOM     99  H   UNL     1     135.687 169.059 181.857  0.00  0.00    +0.028 HD
ATOM    100  H   UNL     1     137.248 168.965 181.042  0.00  0.00    +0.028 HD
ENDBRANCH  28  97
BRANCH  21 101
ATOM    101  C   UNL     1     141.290 174.369 180.735  0.00  0.00    -0.057 C 
ATOM    102  H   UNL     1     140.502 173.642 180.527  0.00  0.00    +0.023 HD
ATOM    103  H   UNL     1     140.818 175.349 180.831  0.00  0.00    +0.023 HD
ATOM    104  H   UNL     1     141.947 174.409 179.861  0.00  0.00    +0.023 HD
ENDBRANCH  21 101
BRANCH  42 105
ATOM    105  C   UNL     1     145.650 169.207 188.211  0.00  0.00    -0.057 C 
ATOM    106  H   UNL     1     146.103 169.394 187.236  0.00  0.00    +0.023 HD
ATOM    107  H   UNL     1     146.397 168.777 188.884  0.00  0.00    +0.023 HD
ATOM    108  H   UNL     1     145.374 170.184 188.614  0.00  0.00    +0.023 HD
ENDBRANCH  42 105
BRANCH  17 109
ATOM    109  C   UNL     1     142.069 178.654 184.807  0.00  0.00    -0.058 C 
ATOM    110  H   UNL     1     142.782 178.834 185.611  0.00  0.00    +0.023 HD
ATOM    111  H   UNL     1     141.741 179.636 184.451  0.00  0.00    +0.023 HD
ATOM    112  H   UNL     1     142.591 178.160 183.988  0.00  0.00    +0.023 HD
ENDBRANCH  17 109
BRANCH  38 113
ATOM    113  C   UNL     1     140.664 165.074 185.907  0.00  0.00    -0.058 C 
ATOM    114  H   UNL     1     139.787 164.645 186.406  0.00  0.00    +0.023 HD
ATOM    115  H   UNL     1     140.523 164.963 184.820  0.00  0.00    +0.023 HD
ATOM    116  H   UNL     1     141.523 164.460 186.192  0.00  0.00    +0.023 HD
ENDBRANCH  38 113
BRANCH   7 117
ATOM    117  C   UNL     1     138.960 172.758 191.447  0.00  0.00    -0.040 C 
ATOM    118  H   UNL     1     138.967 173.851 191.440  0.00  0.00    +0.028 HD
ATOM    119  H   UNL     1     138.165 172.429 192.121  0.00  0.00    +0.028 HD
ATOM    120  H   UNL     1     138.685 172.404 190.446  0.00  0.00    +0.028 HD
ENDBRANCH   7 117
BRANCH   1 121
ATOM    121  C   UNL     1     144.719 166.899 190.341  0.00  0.00    +0.020 C 
ATOM    122  H   UNL     1     145.130 166.105 189.709  0.00  0.00    +0.036 HD
BRANCH 121 123
ATOM    123  C   UNL     1     145.928 167.610 190.977  0.00  0.00    -0.057 C 
ATOM    124  H   UNL     1     146.879 167.154 190.691  0.00  0.00    +0.023 HD
ATOM    125  H   UNL     1     145.959 168.666 190.693  0.00  0.00    +0.023 HD
ATOM    126  H   UNL     1     145.853 167.612 192.066  0.00  0.00    +0.023 HD
ENDBRANCH 121 123
BRANCH 121 127
ATOM    127  C   UNL     1     143.911 166.208 191.491  0.00  0.00    +0.064 C 
ATOM    128  H   UNL     1     142.841 166.372 191.311  0.00  0.00    +0.060 HD
BRANCH 127 129
ATOM    129  C   UNL     1     144.214 166.717 192.931  0.00  0.00    -0.017 C 
ATOM    130  H   UNL     1     145.028 167.447 192.894  0.00  0.00    +0.032 HD
BRANCH 129 131
ATOM    131  C   UNL     1     142.989 167.392 193.556  0.00  0.00    -0.060 C 
ATOM    132  H   UNL     1     142.270 167.729 192.805  0.00  0.00    +0.023 HD
ATOM    133  H   UNL     1     142.468 166.712 194.240  0.00  0.00    +0.023 HD
ATOM    134  H   UNL     1     143.284 168.281 194.126  0.00  0.00    +0.023 HD
ENDBRANCH 129 131
BRANCH 129 135
ATOM    135  C   UNL     1     144.674 165.593 193.894  0.00  0.00    -0.046 C 
ATOM    136  H   UNL     1     144.265 165.816 194.887  0.00  0.00    +0.027 HD
ATOM    137  H   UNL     1     144.244 164.631 193.593  0.00  0.00    +0.027 HD
BRANCH 135 138
ATOM    138  C   UNL     1     146.197 165.448 194.016  0.00  0.00    -0.026 C 
ATOM    139  H   UNL     1     146.439 164.540 194.575  0.00  0.00    +0.029 HD
ATOM    140  H   UNL     1     146.626 165.330 193.013  0.00  0.00    +0.029 HD
BRANCH 138 143
ATOM    141  C   UNL     1     148.803 166.898 193.347  0.00  0.00    +0.059 C 
ATOM    142  O   UNL     1     147.594 167.476 193.854  0.00  0.00    -0.373 OA
ATOM    143  C   UNL     1     146.847 166.638 194.742  0.00  0.00    +0.061 C 
ATOM    144  C   UNL     1     147.722 166.208 195.922  0.00  0.00    -0.000 C 
ATOM    145  C   UNL     1     149.025 165.562 195.455  0.00  0.00    +0.063 C 
ATOM    146  C   UNL     1     149.735 166.502 194.484  0.00  0.00    -0.000 C 
ATOM    147  H   UNL     1     148.552 166.027 192.733  0.00  0.00    +0.059 HD
ATOM    148  H   UNL     1     146.037 167.266 195.135  0.00  0.00    +0.060 HD
ATOM    149  H   UNL     1     147.967 167.095 196.523  0.00  0.00    +0.032 HD
ATOM    150  H   UNL     1     147.175 165.533 196.590  0.00  0.00    +0.032 HD
ATOM    151  H   UNL     1     148.800 164.608 194.964  0.00  0.00    +0.060 HD
ATOM    152  H   UNL     1     150.645 166.036 194.084  0.00  0.00    +0.032 HD
ATOM    153  H   UNL     1     150.064 167.395 195.036  0.00  0.00    +0.032 HD
BRANCH 141 154
ATOM    154  C   UNL     1     149.452 167.934 192.441  0.00  0.00    -0.039 C 
ATOM    155  H   UNL     1     148.707 168.468 191.843  0.00  0.00    +0.025 HD
ATOM    156  H   UNL     1     150.013 168.665 193.036  0.00  0.00    +0.025 HD
ATOM    157  H   UNL     1     150.174 167.463 191.765  0.00  0.00    +0.025 HD
ENDBRANCH 141 154
BRANCH 145 158
ATOM    158  O   UNL     1     149.812 165.300 196.621  0.00  0.00    -0.380 OA
BRANCH 158 159
ATOM    159  C   UNL     1     150.774 164.269 196.433  0.00  0.00    +0.037 C 
ATOM    160  H   UNL     1     150.350 163.533 195.745  0.00  0.00    +0.052 HD
ATOM    161  H   UNL     1     150.991 163.768 197.377  0.00  0.00    +0.052 HD
ATOM    162  H   UNL     1     151.695 164.658 195.990  0.00  0.00    +0.052 HD
ENDBRANCH 158 159
ENDBRANCH 145 158
ENDBRANCH 138 143
ENDBRANCH 135 138
ENDBRANCH 129 135
ENDBRANCH 127 129
BRANCH 127 163
ATOM    163  O   UNL     1     144.120 164.798 191.436  0.00  0.00    -0.391 OA
ATOM    164  H   UNL     1     144.144 164.532 190.502  0.00  0.00    +0.210 HD
ENDBRANCH 127 163
ENDBRANCH 121 127
ENDBRANCH   1 121
BRANCH  41 165
ATOM    165  O   UNL     1     145.129 167.761 185.837  0.00  0.00    -0.391 OA
ATOM    166  H   UNL     1     146.050 168.037 185.998  0.00  0.00    +0.210 HD
ENDBRANCH  41 165
BRANCH  39 167
ATOM    167  O   UNL     1     142.443 168.377 185.761  0.00  0.00    -0.391 OA
ATOM    168  H   UNL     1     143.201 168.627 186.331  0.00  0.00    +0.210 HD
ENDBRANCH  39 167
BRANCH  31 169
ATOM    169  O   UNL     1     134.940 172.163 185.958  0.00  0.00    -0.391 OA
ATOM    170  H   UNL     1     135.902 172.320 185.984  0.00  0.00    +0.210 HD
ENDBRANCH  31 169
BRANCH  22 171
ATOM    171  C   UNL     1     143.243 172.004 183.249  0.00  0.00    +0.020 C 
ATOM    172  H   UNL     1     143.629 172.897 183.743  0.00  0.00    +0.036 HD
BRANCH 171 173
ATOM    173  C   UNL     1     142.370 171.338 184.330  0.00  0.00    -0.057 C 
ATOM    174  H   UNL     1     142.910 170.518 184.820  0.00  0.00    +0.023 HD
ATOM    175  H   UNL     1     142.093 172.056 185.112  0.00  0.00    +0.023 HD
ATOM    176  H   UNL     1     141.438 170.948 183.911  0.00  0.00    +0.023 HD
ENDBRANCH 171 173
BRANCH 171 177
ATOM    177  C   UNL     1     144.433 171.034 182.932  0.00  0.00    +0.064 C 
ATOM    178  H   UNL     1     144.485 170.265 183.716  0.00  0.00    +0.060 HD
BRANCH 177 179
ATOM    179  O   UNL     1     144.194 170.313 181.725  0.00  0.00    -0.391 OA
ATOM    180  H   UNL     1     145.033 169.898 181.456  0.00  0.00    +0.210 HD
ENDBRANCH 177 179
BRANCH 177 181
ATOM    181  C   UNL     1     145.834 171.736 182.857  0.00  0.00    -0.017 C 
ATOM    182  H   UNL     1     146.606 170.963 182.972  0.00  0.00    +0.032 HD
BRANCH 181 183
ATOM    183  C   UNL     1     146.031 172.441 181.504  0.00  0.00    -0.060 C 
ATOM    184  H   UNL     1     146.298 173.489 181.670  0.00  0.00    +0.023 HD
ATOM    185  H   UNL     1     145.137 172.412 180.875  0.00  0.00    +0.023 HD
ATOM    186  H   UNL     1     146.816 171.966 180.911  0.00  0.00    +0.023 HD
ENDBRANCH 181 183
BRANCH 181 187
ATOM    187  C   UNL     1     146.019 172.756 184.020  0.00  0.00    -0.046 C 
ATOM    188  H   UNL     1     145.179 173.456 184.018  0.00  0.00    +0.027 HD
ATOM    189  H   UNL     1     146.931 173.332 183.820  0.00  0.00    +0.027 HD
BRANCH 187 190
ATOM    190  C   UNL     1     146.118 172.115 185.418  0.00  0.00    -0.026 C 
ATOM    191  H   UNL     1     147.097 171.634 185.504  0.00  0.00    +0.029 HD
ATOM    192  H   UNL     1     145.363 171.322 185.493  0.00  0.00    +0.029 HD
BRANCH 190 193
ATOM    193  C   UNL     1     146.000 173.031 186.656  0.00  0.00    +0.061 C 
ATOM    194  O   UNL     1     144.893 172.704 187.496  0.00  0.00    -0.373 OA
ATOM    195  C   UNL     1     143.645 173.301 187.165  0.00  0.00    +0.059 C 
ATOM    196  C   UNL     1     143.752 174.817 187.090  0.00  0.00    -0.000 C 
ATOM    197  C   UNL     1     144.826 175.225 186.076  0.00  0.00    +0.063 C 
ATOM    198  C   UNL     1     146.144 174.535 186.420  0.00  0.00    -0.000 C 
ATOM    199  H   UNL     1     146.868 172.750 187.268  0.00  0.00    +0.060 HD
ATOM    200  H   UNL     1     143.295 172.892 186.211  0.00  0.00    +0.059 HD
ATOM    201  H   UNL     1     142.784 175.250 186.815  0.00  0.00    +0.032 HD
ATOM    202  H   UNL     1     144.016 175.240 188.066  0.00  0.00    +0.032 HD
ATOM    203  H   UNL     1     144.505 174.943 185.071  0.00  0.00    +0.060 HD
ATOM    204  H   UNL     1     146.512 174.988 187.351  0.00  0.00    +0.032 HD
ATOM    205  H   UNL     1     146.911 174.752 185.667  0.00  0.00    +0.032 HD
BRANCH 195 206
ATOM    206  C   UNL     1     142.648 172.899 188.245  0.00  0.00    -0.039 C 
ATOM    207  H   UNL     1     143.108 172.223 188.968  0.00  0.00    +0.025 HD
ATOM    208  H   UNL     1     142.277 173.777 188.777  0.00  0.00    +0.025 HD
ATOM    209  H   UNL     1     141.777 172.402 187.811  0.00  0.00    +0.025 HD
ENDBRANCH 195 206
BRANCH 197 210
ATOM    210  O   UNL     1     145.082 176.635 186.070  0.00  0.00    -0.380 OA
BRANCH 210 211
ATOM    211  C   UNL     1     146.002 177.054 185.075  0.00  0.00    +0.037 C 
ATOM    212  H   UNL     1     145.686 176.690 184.097  0.00  0.00    +0.052 HD
ATOM    213  H   UNL     1     145.995 178.147 185.041  0.00  0.00    +0.052 HD
ATOM    214  H   UNL     1     147.015 176.717 185.301  0.00  0.00    +0.052 HD
ENDBRANCH 210 211
ENDBRANCH 197 210
ENDBRANCH 190 193
ENDBRANCH 187 190
ENDBRANCH 181 187
ENDBRANCH 177 181
ENDBRANCH 171 177
ENDBRANCH  22 171
BRANCH  20 215
ATOM    215  O   UNL     1     139.925 174.060 183.329  0.00  0.00    -0.391 OA
ATOM    216  H   UNL     1     139.607 174.096 184.247  0.00  0.00    +0.210 HD
ENDBRANCH  20 215
BRANCH  18 217
ATOM    217  O   UNL     1     139.942 175.607 185.518  0.00  0.00    -0.391 OA
ATOM    218  H   UNL     1     139.743 174.839 184.939  0.00  0.00    +0.210 HD
ENDBRANCH  18 217
BRANCH  10 219
ATOM    219  O   UNL     1     141.446 176.336 194.155  0.00  0.00    -0.391 OA
ATOM    220  H   UNL     1     141.457 177.196 193.699  0.00  0.00    +0.210 HD
ENDBRANCH  10 219
BRANCH  37 221
ATOM    221  O   UNL     1     138.515 166.807 185.754  0.00  0.00    -0.379 OA
BRANCH 221 222
ATOM    222  C   UNL     1     137.966 166.612 184.458  0.00  0.00    +0.037 C 
ATOM    223  H   UNL     1     138.487 165.801 183.938  0.00  0.00    +0.052 HD
ATOM    224  H   UNL     1     138.024 167.528 183.862  0.00  0.00    +0.052 HD
ATOM    225  H   UNL     1     136.911 166.336 184.562  0.00  0.00    +0.052 HD
ENDBRANCH 221 222
ENDBRANCH  37 221
BRANCH  16 226
ATOM    226  O   UNL     1     139.278 177.669 187.230  0.00  0.00    -0.379 OA
BRANCH 226 227
ATOM    227  C   UNL     1     138.161 178.448 186.827  0.00  0.00    +0.037 C 
ATOM    228  H   UNL     1     138.519 179.206 186.126  0.00  0.00    +0.052 HD
ATOM    229  H   UNL     1     137.416 177.832 186.311  0.00  0.00    +0.052 HD
ATOM    230  H   UNL     1     137.708 178.964 187.678  0.00  0.00    +0.052 HD
ENDBRANCH 226 227
ENDBRANCH  16 226
TORSDOF 40
ENDMDL
MODEL 6
REMARK VINA RESULT:      -5.8      2.098      3.619
REMARK  Name = Swinholide A_conf2
REMARK  40 active torsions:
REMARK  status: ('A' for Active; 'I' for Inactive)
REMARK    1  A    between atoms: C_1  and  C_2
REMARK    2  A    between atoms: C_4  and  C_10
REMARK    3  A    between atoms: C_6  and  O_8
REMARK    4  A    between atoms: O_8  and  C_9
REMARK    5  A    between atoms: C_10  and  C_11
REMARK    6  A    between atoms: C_11  and  C_12
REMARK    7  A    between atoms: C_12  and  C_13
REMARK    8  A    between atoms: C_12  and  C_98
REMARK    9  A    between atoms: C_13  and  O_14
REMARK   10  A    between atoms: C_13  and  C_15
REMARK   11  A    between atoms: C_15  and  C_16
REMARK   12  A    between atoms: C_15  and  C_97
REMARK   13  A    between atoms: C_22  and  C_96
REMARK   14  A    between atoms: C_25  and  O_95
REMARK   15  A    between atoms: C_31  and  O_90
REMARK   16  A    between atoms: C_32  and  C_89
REMARK   17  A    between atoms: C_33  and  O_88
REMARK   18  A    between atoms: C_35  and  O_87
REMARK   19  A    between atoms: C_36  and  C_86
REMARK   20  A    between atoms: C_37  and  C_69
REMARK   21  A    between atoms: C_43  and  C_68
REMARK   22  A    between atoms: C_46  and  O_67
REMARK   23  A    between atoms: C_52  and  O_62
REMARK   24  A    between atoms: C_53  and  C_61
REMARK   25  A    between atoms: C_54  and  O_60
REMARK   26  A    between atoms: C_56  and  O_59
REMARK   27  A    between atoms: C_57  and  C_58
REMARK   28  A    between atoms: O_62  and  C_63
REMARK   29  A    between atoms: C_69  and  C_70
REMARK   30  A    between atoms: C_69  and  C_85
REMARK   31  A    between atoms: C_70  and  O_71
REMARK   32  A    between atoms: C_70  and  C_72
REMARK   33  A    between atoms: C_72  and  C_73
REMARK   34  A    between atoms: C_72  and  C_84
REMARK   35  A    between atoms: C_73  and  C_74
REMARK   36  A    between atoms: C_74  and  C_75
REMARK   37  A    between atoms: C_77  and  C_83
REMARK   38  A    between atoms: C_79  and  O_81
REMARK   39  A    between atoms: O_81  and  C_82
REMARK   40  A    between atoms: O_90  and  C_91
REMARK                            x       y       z     vdW  Elec       q    Type
REMARK                         _______ _______ _______ _____ _____    ______ ____
ROOT
ATOM      1  C   UNL     1     144.950 168.491 189.912  0.00  0.00    +0.113 C 
ATOM      2  O   UNL     1     144.442 169.708 190.519  0.00  0.00    -0.458 OA
ATOM      3  C   UNL     1     143.094 169.806 190.617  0.00  0.00    +0.332 C 
ATOM      4  O   UNL     1     142.271 168.972 190.285  0.00  0.00    -0.246 OA
ATOM      5  C   UNL     1     142.757 171.138 191.166  0.00  0.00    +0.023 C 
ATOM      6  C   UNL     1     141.476 171.428 191.442  0.00  0.00    -0.052 C 
ATOM      7  C   UNL     1     140.962 172.712 191.904  0.00  0.00    -0.054 C 
ATOM      8  C   UNL     1     141.681 173.540 192.688  0.00  0.00    -0.079 C 
ATOM      9  C   UNL     1     141.211 174.849 193.270  0.00  0.00    -0.008 C 
ATOM     10  C   UNL     1     141.960 176.087 192.733  0.00  0.00    +0.061 C 
ATOM     11  C   UNL     1     141.600 176.401 191.272  0.00  0.00    +0.003 C 
ATOM     12  C   UNL     1     142.142 177.752 190.757  0.00  0.00    +0.080 C 
ATOM     13  O   UNL     1     142.328 177.710 189.324  0.00  0.00    -0.369 OA
ATOM     14  C   UNL     1     141.111 177.874 188.571  0.00  0.00    +0.065 C 
ATOM     15  C   UNL     1     141.474 177.659 187.090  0.00  0.00    +0.000 C 
ATOM     16  C   UNL     1     140.320 177.911 186.094  0.00  0.00    +0.066 C 
ATOM     17  C   UNL     1     140.639 177.426 184.638  0.00  0.00    +0.009 C 
ATOM     18  C   UNL     1     141.013 175.926 184.540  0.00  0.00    +0.063 C 
ATOM     19  C   UNL     1     141.243 175.441 183.086  0.00  0.00    -0.000 C 
ATOM     20  C   UNL     1     141.429 173.915 183.068  0.00  0.00    +0.064 C 
ATOM     21  C   UNL     1     142.197 173.382 181.830  0.00  0.00    +0.020 C 
ATOM     22  C   UNL     1     142.714 171.921 182.030  0.00  0.00    +0.113 C 
ATOM     23  O   UNL     1     141.509 171.128 182.221  0.00  0.00    -0.458 OA
ATOM     24  C   UNL     1     141.374 169.936 181.604  0.00  0.00    +0.332 C 
ATOM     25  O   UNL     1     142.246 169.325 180.984  0.00  0.00    -0.246 OA
ATOM     26  C   UNL     1     140.001 169.409 181.765  0.00  0.00    +0.023 C 
ATOM     27  C   UNL     1     139.068 169.986 182.550  0.00  0.00    -0.052 C 
ATOM     28  C   UNL     1     137.698 169.537 182.788  0.00  0.00    -0.054 C 
ATOM     29  C   UNL     1     136.961 170.209 183.697  0.00  0.00    -0.079 C 
ATOM     30  C   UNL     1     135.573 169.903 184.181  0.00  0.00    -0.008 C 
ATOM     31  C   UNL     1     135.377 169.914 185.711  0.00  0.00    +0.061 C 
ATOM     32  C   UNL     1     136.158 168.855 186.518  0.00  0.00    +0.003 C 
ATOM     33  C   UNL     1     137.594 169.131 187.006  0.00  0.00    +0.080 C 
ATOM     34  O   UNL     1     138.506 169.110 185.904  0.00  0.00    -0.369 OA
ATOM     35  C   UNL     1     139.846 169.507 186.212  0.00  0.00    +0.065 C 
ATOM     36  C   UNL     1     140.585 168.520 187.133  0.00  0.00    +0.000 C 
ATOM     37  C   UNL     1     140.868 167.174 186.422  0.00  0.00    +0.066 C 
ATOM     38  C   UNL     1     142.098 166.457 187.050  0.00  0.00    +0.009 C 
ATOM     39  C   UNL     1     143.452 166.983 186.488  0.00  0.00    +0.063 C 
ATOM     40  C   UNL     1     144.651 166.600 187.396  0.00  0.00    -0.000 C 
ATOM     41  C   UNL     1     145.764 167.640 187.578  0.00  0.00    +0.064 C 
ATOM     42  C   UNL     1     145.415 168.859 188.469  0.00  0.00    +0.020 C 
ATOM     43  C   UNL     1     139.863 170.954 186.734  0.00  0.00    -0.008 C 
ATOM     44  C   UNL     1     138.759 171.231 187.710  0.00  0.00    -0.083 C 
ATOM     45  C   UNL     1     137.734 170.383 187.832  0.00  0.00    -0.059 C 
ATOM     46  C   UNL     1     140.509 179.263 188.827  0.00  0.00    -0.008 C 
ATOM     47  C   UNL     1     140.518 179.610 190.284  0.00  0.00    -0.083 C 
ATOM     48  C   UNL     1     141.277 178.928 191.148  0.00  0.00    -0.059 C 
ATOM     49  H   UNL     1     144.130 167.787 189.782  0.00  0.00    +0.074 HD
ATOM     50  H   UNL     1     143.567 171.842 191.291  0.00  0.00    +0.069 HD
ATOM     51  H   UNL     1     140.716 170.667 191.264  0.00  0.00    +0.062 HD
ATOM     52  H   UNL     1     142.683 173.248 192.999  0.00  0.00    +0.058 HD
ATOM     53  H   UNL     1     141.355 174.790 194.357  0.00  0.00    +0.033 HD
ATOM     54  H   UNL     1     140.134 174.999 193.149  0.00  0.00    +0.033 HD
ATOM     55  H   UNL     1     143.038 175.924 192.810  0.00  0.00    +0.060 HD
ATOM     56  H   UNL     1     141.974 175.596 190.630  0.00  0.00    +0.032 HD
ATOM     57  H   UNL     1     140.510 176.393 191.153  0.00  0.00    +0.032 HD
ATOM     58  H   UNL     1     143.145 177.915 191.164  0.00  0.00    +0.064 HD
ATOM     59  H   UNL     1     140.406 177.090 188.873  0.00  0.00    +0.060 HD
ATOM     60  H   UNL     1     142.330 178.289 186.823  0.00  0.00    +0.032 HD
ATOM     61  H   UNL     1     141.831 176.625 187.011  0.00  0.00    +0.032 HD
ATOM     62  H   UNL     1     140.153 178.998 186.053  0.00  0.00    +0.060 HD
ATOM     63  H   UNL     1     139.724 177.561 184.052  0.00  0.00    +0.035 HD
ATOM     64  H   UNL     1     141.950 175.745 185.080  0.00  0.00    +0.060 HD
ATOM     65  H   UNL     1     142.134 175.932 182.674  0.00  0.00    +0.032 HD
ATOM     66  H   UNL     1     140.383 175.717 182.469  0.00  0.00    +0.032 HD
ATOM     67  H   UNL     1     141.983 173.653 183.969  0.00  0.00    +0.060 HD
ATOM     68  H   UNL     1     143.057 174.042 181.681  0.00  0.00    +0.036 HD
ATOM     69  H   UNL     1     143.225 171.600 181.113  0.00  0.00    +0.074 HD
ATOM     70  H   UNL     1     139.811 168.494 181.217  0.00  0.00    +0.069 HD
ATOM     71  H   UNL     1     139.355 170.875 183.113  0.00  0.00    +0.062 HD
ATOM     72  H   UNL     1     137.417 171.066 184.199  0.00  0.00    +0.058 HD
ATOM     73  H   UNL     1     134.913 170.667 183.747  0.00  0.00    +0.033 HD
ATOM     74  H   UNL     1     135.223 168.938 183.809  0.00  0.00    +0.033 HD
ATOM     75  H   UNL     1     134.321 169.653 185.848  0.00  0.00    +0.060 HD
ATOM     76  H   UNL     1     136.163 167.921 185.940  0.00  0.00    +0.032 HD
ATOM     77  H   UNL     1     135.568 168.655 187.417  0.00  0.00    +0.032 HD
ATOM     78  H   UNL     1     137.849 168.282 187.649  0.00  0.00    +0.064 HD
ATOM     79  H   UNL     1     140.385 169.525 185.255  0.00  0.00    +0.060 HD
ATOM     80  H   UNL     1     140.014 168.337 188.050  0.00  0.00    +0.032 HD
ATOM     81  H   UNL     1     141.521 168.995 187.449  0.00  0.00    +0.032 HD
ATOM     82  H   UNL     1     141.064 167.334 185.354  0.00  0.00    +0.060 HD
ATOM     83  H   UNL     1     142.064 166.650 188.130  0.00  0.00    +0.035 HD
ATOM     84  H   UNL     1     143.613 166.519 185.505  0.00  0.00    +0.060 HD
ATOM     85  H   UNL     1     145.103 165.702 186.946  0.00  0.00    +0.032 HD
ATOM     86  H   UNL     1     144.296 166.257 188.371  0.00  0.00    +0.032 HD
ATOM     87  H   UNL     1     146.642 167.148 188.008  0.00  0.00    +0.060 HD
ATOM     88  H   UNL     1     144.567 169.388 188.012  0.00  0.00    +0.036 HD
ATOM     89  H   UNL     1     140.831 171.191 187.190  0.00  0.00    +0.033 HD
ATOM     90  H   UNL     1     139.717 171.643 185.893  0.00  0.00    +0.033 HD
ATOM     91  H   UNL     1     138.794 172.153 188.281  0.00  0.00    +0.057 HD
ATOM     92  H   UNL     1     136.938 170.602 188.544  0.00  0.00    +0.059 HD
ATOM     93  H   UNL     1     141.072 180.033 188.290  0.00  0.00    +0.033 HD
ATOM     94  H   UNL     1     139.478 179.294 188.458  0.00  0.00    +0.033 HD
ATOM     95  H   UNL     1     139.914 180.444 190.618  0.00  0.00    +0.057 HD
ATOM     96  H   UNL     1     141.269 179.206 192.199  0.00  0.00    +0.059 HD
ENDROOT
BRANCH  28  97
ATOM     97  C   UNL     1     137.208 168.339 182.015  0.00  0.00    -0.040 C 
ATOM     98  H   UNL     1     138.054 167.777 181.607  0.00  0.00    +0.028 HD
ATOM     99  H   UNL     1     136.584 168.597 181.154  0.00  0.00    +0.028 HD
ATOM    100  H   UNL     1     136.619 167.674 182.657  0.00  0.00    +0.028 HD
ENDBRANCH  28  97
BRANCH  21 101
ATOM    101  C   UNL     1     141.367 173.467 180.542  0.00  0.00    -0.057 C 
ATOM    102  H   UNL     1     142.003 173.400 179.656  0.00  0.00    +0.023 HD
ATOM    103  H   UNL     1     140.652 172.644 180.499  0.00  0.00    +0.023 HD
ATOM    104  H   UNL     1     140.796 174.398 180.473  0.00  0.00    +0.023 HD
ENDBRANCH  21 101
BRANCH  42 105
ATOM    105  C   UNL     1     146.545 169.901 188.418  0.00  0.00    -0.057 C 
ATOM    106  H   UNL     1     146.832 170.231 189.417  0.00  0.00    +0.023 HD
ATOM    107  H   UNL     1     146.275 170.768 187.809  0.00  0.00    +0.023 HD
ATOM    108  H   UNL     1     147.440 169.459 187.973  0.00  0.00    +0.023 HD
ENDBRANCH  42 105
BRANCH  17 109
ATOM    109  C   UNL     1     141.712 178.314 183.998  0.00  0.00    -0.058 C 
ATOM    110  H   UNL     1     141.498 178.501 182.946  0.00  0.00    +0.023 HD
ATOM    111  H   UNL     1     142.689 177.823 184.040  0.00  0.00    +0.023 HD
ATOM    112  H   UNL     1     141.799 179.274 184.507  0.00  0.00    +0.023 HD
ENDBRANCH  17 109
BRANCH  38 113
ATOM    113  C   UNL     1     142.056 164.928 186.879  0.00  0.00    -0.058 C 
ATOM    114  H   UNL     1     142.977 164.446 187.227  0.00  0.00    +0.023 HD
ATOM    115  H   UNL     1     141.215 164.495 187.442  0.00  0.00    +0.023 HD
ATOM    116  H   UNL     1     141.930 164.648 185.829  0.00  0.00    +0.023 HD
ENDBRANCH  38 113
BRANCH   7 117
ATOM    117  C   UNL     1     139.553 173.011 191.463  0.00  0.00    -0.040 C 
ATOM    118  H   UNL     1     139.297 172.418 190.581  0.00  0.00    +0.028 HD
ATOM    119  H   UNL     1     139.432 174.068 191.206  0.00  0.00    +0.028 HD
ATOM    120  H   UNL     1     138.822 172.799 192.252  0.00  0.00    +0.028 HD
ENDBRANCH   7 117
BRANCH   1 121
ATOM    121  C   UNL     1     145.970 167.799 190.863  0.00  0.00    +0.020 C 
ATOM    122  H   UNL     1     145.660 167.973 191.898  0.00  0.00    +0.036 HD
BRANCH 121 123
ATOM    123  C   UNL     1     146.043 166.270 190.690  0.00  0.00    -0.057 C 
ATOM    124  H   UNL     1     145.750 165.732 191.595  0.00  0.00    +0.023 HD
ATOM    125  H   UNL     1     145.398 165.934 189.872  0.00  0.00    +0.023 HD
ATOM    126  H   UNL     1     147.049 165.956 190.404  0.00  0.00    +0.023 HD
ENDBRANCH 121 123
BRANCH 121 127
ATOM    127  C   UNL     1     147.421 168.368 190.708  0.00  0.00    +0.064 C 
ATOM    128  H   UNL     1     147.468 168.948 189.777  0.00  0.00    +0.060 HD
BRANCH 127 129
ATOM    129  C   UNL     1     148.559 167.308 190.643  0.00  0.00    -0.017 C 
ATOM    130  H   UNL     1     148.202 166.364 191.065  0.00  0.00    +0.032 HD
BRANCH 129 131
ATOM    131  C   UNL     1     149.006 167.052 189.200  0.00  0.00    -0.060 C 
ATOM    132  H   UNL     1     148.259 167.373 188.470  0.00  0.00    +0.023 HD
ATOM    133  H   UNL     1     149.942 167.577 188.976  0.00  0.00    +0.023 HD
ATOM    134  H   UNL     1     149.171 165.982 189.029  0.00  0.00    +0.023 HD
ENDBRANCH 129 131
BRANCH 129 135
ATOM    135  C   UNL     1     149.815 167.708 191.460  0.00  0.00    -0.046 C 
ATOM    136  H   UNL     1     150.671 167.162 191.045  0.00  0.00    +0.027 HD
ATOM    137  H   UNL     1     150.035 168.773 191.326  0.00  0.00    +0.027 HD
BRANCH 135 138
ATOM    138  C   UNL     1     149.720 167.397 192.960  0.00  0.00    -0.026 C 
ATOM    139  H   UNL     1     150.633 167.723 193.465  0.00  0.00    +0.029 HD
ATOM    140  H   UNL     1     148.893 167.974 193.392  0.00  0.00    +0.029 HD
BRANCH 138 143
ATOM    141  C   UNL     1     147.527 166.019 194.582  0.00  0.00    +0.059 C 
ATOM    142  O   UNL     1     148.155 165.537 193.389  0.00  0.00    -0.373 OA
ATOM    143  C   UNL     1     149.533 165.896 193.241  0.00  0.00    +0.061 C 
ATOM    144  C   UNL     1     150.336 165.415 194.452  0.00  0.00    -0.000 C 
ATOM    145  C   UNL     1     149.733 165.909 195.765  0.00  0.00    +0.063 C 
ATOM    146  C   UNL     1     148.258 165.521 195.822  0.00  0.00    -0.000 C 
ATOM    147  H   UNL     1     147.510 167.114 194.560  0.00  0.00    +0.059 HD
ATOM    148  H   UNL     1     149.892 165.349 192.360  0.00  0.00    +0.060 HD
ATOM    149  H   UNL     1     150.339 164.315 194.460  0.00  0.00    +0.032 HD
ATOM    150  H   UNL     1     151.386 165.717 194.371  0.00  0.00    +0.032 HD
ATOM    151  H   UNL     1     149.842 166.999 195.825  0.00  0.00    +0.060 HD
ATOM    152  H   UNL     1     147.784 165.918 196.728  0.00  0.00    +0.032 HD
ATOM    153  H   UNL     1     148.185 164.426 195.892  0.00  0.00    +0.032 HD
BRANCH 141 154
ATOM    154  C   UNL     1     146.086 165.530 194.562  0.00  0.00    -0.039 C 
ATOM    155  H   UNL     1     145.895 164.809 195.362  0.00  0.00    +0.025 HD
ATOM    156  H   UNL     1     145.394 166.373 194.679  0.00  0.00    +0.025 HD
ATOM    157  H   UNL     1     145.847 165.062 193.601  0.00  0.00    +0.025 HD
ENDBRANCH 141 154
BRANCH 145 158
ATOM    158  O   UNL     1     150.487 165.318 196.828  0.00  0.00    -0.380 OA
BRANCH 158 159
ATOM    159  C   UNL     1     150.889 163.981 196.559  0.00  0.00    +0.037 C 
ATOM    160  H   UNL     1     150.012 163.426 196.215  0.00  0.00    +0.052 HD
ATOM    161  H   UNL     1     151.260 163.501 197.465  0.00  0.00    +0.052 HD
ATOM    162  H   UNL     1     151.648 163.942 195.772  0.00  0.00    +0.052 HD
ENDBRANCH 158 159
ENDBRANCH 145 158
ENDBRANCH 138 143
ENDBRANCH 135 138
ENDBRANCH 129 135
ENDBRANCH 127 129
BRANCH 127 163
ATOM    163  O   UNL     1     147.687 169.282 191.769  0.00  0.00    -0.391 OA
ATOM    164  H   UNL     1     147.669 168.790 192.606  0.00  0.00    +0.210 HD
ENDBRANCH 127 163
ENDBRANCH 121 127
ENDBRANCH   1 121
BRANCH  41 165
ATOM    165  O   UNL     1     146.145 168.103 186.273  0.00  0.00    -0.391 OA
ATOM    166  H   UNL     1     145.475 168.751 185.990  0.00  0.00    +0.210 HD
ENDBRANCH  41 165
BRANCH  39 167
ATOM    167  O   UNL     1     143.401 168.374 186.236  0.00  0.00    -0.391 OA
ATOM    168  H   UNL     1     144.064 168.567 185.539  0.00  0.00    +0.210 HD
ENDBRANCH  39 167
BRANCH  31 169
ATOM    169  O   UNL     1     135.490 171.216 186.276  0.00  0.00    -0.391 OA
ATOM    170  H   UNL     1     135.899 171.138 187.157  0.00  0.00    +0.210 HD
ENDBRANCH  31 169
BRANCH  22 171
ATOM    171  C   UNL     1     143.669 171.708 183.250  0.00  0.00    +0.020 C 
ATOM    172  H   UNL     1     144.024 172.695 183.554  0.00  0.00    +0.036 HD
BRANCH 171 173
ATOM    173  C   UNL     1     142.895 171.203 184.482  0.00  0.00    -0.057 C 
ATOM    174  H   UNL     1     142.645 170.140 184.381  0.00  0.00    +0.023 HD
ATOM    175  H   UNL     1     143.493 171.310 185.395  0.00  0.00    +0.023 HD
ATOM    176  H   UNL     1     141.972 171.771 184.639  0.00  0.00    +0.023 HD
ENDBRANCH 171 173
BRANCH 171 177
ATOM    177  C   UNL     1     144.901 170.761 183.040  0.00  0.00    +0.064 C 
ATOM    178  H   UNL     1     144.875 169.968 183.802  0.00  0.00    +0.060 HD
BRANCH 177 179
ATOM    179  O   UNL     1     144.807 170.074 181.792  0.00  0.00    -0.391 OA
ATOM    180  H   UNL     1     144.599 170.733 181.107  0.00  0.00    +0.210 HD
ENDBRANCH 177 179
BRANCH 177 181
ATOM    181  C   UNL     1     146.291 171.479 183.142  0.00  0.00    -0.017 C 
ATOM    182  H   UNL     1     147.012 170.762 183.562  0.00  0.00    +0.032 HD
BRANCH 181 183
ATOM    183  C   UNL     1     146.787 171.932 181.758  0.00  0.00    -0.060 C 
ATOM    184  H   UNL     1     146.272 171.361 180.979  0.00  0.00    +0.023 HD
ATOM    185  H   UNL     1     147.863 171.796 181.626  0.00  0.00    +0.023 HD
ATOM    186  H   UNL     1     146.608 172.996 181.593  0.00  0.00    +0.023 HD
ENDBRANCH 181 183
BRANCH 181 187
ATOM    187  C   UNL     1     146.229 172.697 184.111  0.00  0.00    -0.046 C 
ATOM    188  H   UNL     1     145.312 173.260 183.917  0.00  0.00    +0.027 HD
ATOM    189  H   UNL     1     147.077 173.353 183.880  0.00  0.00    +0.027 HD
BRANCH 187 190
ATOM    190  C   UNL     1     146.266 172.323 185.606  0.00  0.00    -0.026 C 
ATOM    191  H   UNL     1     147.244 171.882 185.822  0.00  0.00    +0.029 HD
ATOM    192  H   UNL     1     145.515 171.547 185.791  0.00  0.00    +0.029 HD
BRANCH 190 193
ATOM    193  C   UNL     1     146.085 173.448 186.648  0.00  0.00    +0.061 C 
ATOM    194  O   UNL     1     145.039 173.185 187.584  0.00  0.00    -0.373 OA
ATOM    195  C   UNL     1     143.728 173.581 187.201  0.00  0.00    +0.059 C 
ATOM    196  C   UNL     1     143.674 175.057 186.831  0.00  0.00    -0.000 C 
ATOM    197  C   UNL     1     144.674 175.361 185.711  0.00  0.00    +0.063 C 
ATOM    198  C   UNL     1     146.065 174.884 186.121  0.00  0.00    -0.000 C 
ATOM    199  H   UNL     1     146.993 173.379 187.264  0.00  0.00    +0.060 HD
ATOM    200  H   UNL     1     143.399 172.962 186.360  0.00  0.00    +0.059 HD
ATOM    201  H   UNL     1     142.659 175.331 186.522  0.00  0.00    +0.032 HD
ATOM    202  H   UNL     1     143.917 175.687 187.695  0.00  0.00    +0.032 HD
ATOM    203  H   UNL     1     144.359 174.857 184.794  0.00  0.00    +0.060 HD
ATOM    204  H   UNL     1     146.407 175.544 186.931  0.00  0.00    +0.032 HD
ATOM    205  H   UNL     1     146.786 175.023 185.307  0.00  0.00    +0.032 HD
BRANCH 195 206
ATOM    206  C   UNL     1     142.806 173.303 188.382  0.00  0.00    -0.039 C 
ATOM    207  H   UNL     1     141.821 172.980 188.041  0.00  0.00    +0.025 HD
ATOM    208  H   UNL     1     143.223 172.527 189.026  0.00  0.00    +0.025 HD
ATOM    209  H   UNL     1     142.683 174.194 189.003  0.00  0.00    +0.025 HD
ENDBRANCH 195 206
BRANCH 197 210
ATOM    210  O   UNL     1     144.781 176.761 185.423  0.00  0.00    -0.380 OA
BRANCH 210 211
ATOM    211  C   UNL     1     146.081 177.177 185.035  0.00  0.00    +0.037 C 
ATOM    212  H   UNL     1     146.032 178.152 184.550  0.00  0.00    +0.052 HD
ATOM    213  H   UNL     1     146.689 177.285 185.937  0.00  0.00    +0.052 HD
ATOM    214  H   UNL     1     146.555 176.445 184.378  0.00  0.00    +0.052 HD
ENDBRANCH 210 211
ENDBRANCH 197 210
ENDBRANCH 190 193
ENDBRANCH 187 190
ENDBRANCH 181 187
ENDBRANCH 177 181
ENDBRANCH 171 177
ENDBRANCH  22 171
BRANCH  20 215
ATOM    215  O   UNL     1     140.123 173.340 183.211  0.00  0.00    -0.391 OA
ATOM    216  H   UNL     1     139.460 174.049 183.154  0.00  0.00    +0.210 HD
ENDBRANCH  20 215
BRANCH  18 217
ATOM    217  O   UNL     1     140.006 175.152 185.183  0.00  0.00    -0.391 OA
ATOM    218  H   UNL     1     140.263 174.969 186.112  0.00  0.00    +0.210 HD
ENDBRANCH  18 217
BRANCH  10 219
ATOM    219  O   UNL     1     141.642 177.190 193.583  0.00  0.00    -0.391 OA
ATOM    220  H   UNL     1     140.672 177.269 193.618  0.00  0.00    +0.210 HD
ENDBRANCH  10 219
BRANCH  37 221
ATOM    221  O   UNL     1     139.704 166.352 186.600  0.00  0.00    -0.379 OA
BRANCH 221 222
ATOM    222  C   UNL     1     139.144 165.928 185.364  0.00  0.00    +0.037 C 
ATOM    223  H   UNL     1     139.935 165.644 184.662  0.00  0.00    +0.052 HD
ATOM    224  H   UNL     1     138.523 166.712 184.921  0.00  0.00    +0.052 HD
ATOM    225  H   UNL     1     138.513 165.052 185.547  0.00  0.00    +0.052 HD
ENDBRANCH 221 222
ENDBRANCH  37 221
BRANCH  16 226
ATOM    226  O   UNL     1     139.135 177.326 186.646  0.00  0.00    -0.379 OA
BRANCH 226 227
ATOM    227  C   UNL     1     137.918 177.903 186.195  0.00  0.00    +0.037 C 
ATOM    228  H   UNL     1     137.225 177.923 187.039  0.00  0.00    +0.052 HD
ATOM    229  H   UNL     1     138.072 178.933 185.855  0.00  0.00    +0.052 HD
ATOM    230  H   UNL     1     137.463 177.304 185.401  0.00  0.00    +0.052 HD
ENDBRANCH 226 227
ENDBRANCH  16 226
TORSDOF 40
ENDMDL
MODEL 7
REMARK VINA RESULT:      -5.7      4.065      8.859
REMARK  Name = Swinholide A_conf2
REMARK  40 active torsions:
REMARK  status: ('A' for Active; 'I' for Inactive)
REMARK    1  A    between atoms: C_1  and  C_2
REMARK    2  A    between atoms: C_4  and  C_10
REMARK    3  A    between atoms: C_6  and  O_8
REMARK    4  A    between atoms: O_8  and  C_9
REMARK    5  A    between atoms: C_10  and  C_11
REMARK    6  A    between atoms: C_11  and  C_12
REMARK    7  A    between atoms: C_12  and  C_13
REMARK    8  A    between atoms: C_12  and  C_98
REMARK    9  A    between atoms: C_13  and  O_14
REMARK   10  A    between atoms: C_13  and  C_15
REMARK   11  A    between atoms: C_15  and  C_16
REMARK   12  A    between atoms: C_15  and  C_97
REMARK   13  A    between atoms: C_22  and  C_96
REMARK   14  A    between atoms: C_25  and  O_95
REMARK   15  A    between atoms: C_31  and  O_90
REMARK   16  A    between atoms: C_32  and  C_89
REMARK   17  A    between atoms: C_33  and  O_88
REMARK   18  A    between atoms: C_35  and  O_87
REMARK   19  A    between atoms: C_36  and  C_86
REMARK   20  A    between atoms: C_37  and  C_69
REMARK   21  A    between atoms: C_43  and  C_68
REMARK   22  A    between atoms: C_46  and  O_67
REMARK   23  A    between atoms: C_52  and  O_62
REMARK   24  A    between atoms: C_53  and  C_61
REMARK   25  A    between atoms: C_54  and  O_60
REMARK   26  A    between atoms: C_56  and  O_59
REMARK   27  A    between atoms: C_57  and  C_58
REMARK   28  A    between atoms: O_62  and  C_63
REMARK   29  A    between atoms: C_69  and  C_70
REMARK   30  A    between atoms: C_69  and  C_85
REMARK   31  A    between atoms: C_70  and  O_71
REMARK   32  A    between atoms: C_70  and  C_72
REMARK   33  A    between atoms: C_72  and  C_73
REMARK   34  A    between atoms: C_72  and  C_84
REMARK   35  A    between atoms: C_73  and  C_74
REMARK   36  A    between atoms: C_74  and  C_75
REMARK   37  A    between atoms: C_77  and  C_83
REMARK   38  A    between atoms: C_79  and  O_81
REMARK   39  A    between atoms: O_81  and  C_82
REMARK   40  A    between atoms: O_90  and  C_91
REMARK                            x       y       z     vdW  Elec       q    Type
REMARK                         _______ _______ _______ _____ _____    ______ ____
ROOT
ATOM      1  C   UNL     1     142.820 162.732 186.200  0.00  0.00    +0.113 C 
ATOM      2  O   UNL     1     141.458 163.062 185.825  0.00  0.00    -0.458 OA
ATOM      3  C   UNL     1     141.316 164.054 184.912  0.00  0.00    +0.332 C 
ATOM      4  O   UNL     1     142.206 164.668 184.351  0.00  0.00    -0.246 OA
ATOM      5  C   UNL     1     139.873 164.317 184.723  0.00  0.00    +0.023 C 
ATOM      6  C   UNL     1     139.485 165.200 183.789  0.00  0.00    -0.052 C 
ATOM      7  C   UNL     1     138.118 165.638 183.531  0.00  0.00    -0.054 C 
ATOM      8  C   UNL     1     137.054 164.832 183.708  0.00  0.00    -0.079 C 
ATOM      9  C   UNL     1     135.616 165.171 183.404  0.00  0.00    -0.008 C 
ATOM     10  C   UNL     1     134.703 165.236 184.645  0.00  0.00    +0.061 C 
ATOM     11  C   UNL     1     134.993 166.462 185.524  0.00  0.00    +0.003 C 
ATOM     12  C   UNL     1     133.965 166.698 186.651  0.00  0.00    +0.080 C 
ATOM     13  O   UNL     1     134.577 167.404 187.755  0.00  0.00    -0.369 OA
ATOM     14  C   UNL     1     134.715 168.821 187.540  0.00  0.00    +0.065 C 
ATOM     15  C   UNL     1     135.506 169.377 188.738  0.00  0.00    +0.000 C 
ATOM     16  C   UNL     1     135.661 170.914 188.760  0.00  0.00    +0.066 C 
ATOM     17  C   UNL     1     136.689 171.420 189.829  0.00  0.00    +0.009 C 
ATOM     18  C   UNL     1     138.107 170.815 189.677  0.00  0.00    +0.063 C 
ATOM     19  C   UNL     1     139.135 171.387 190.687  0.00  0.00    -0.000 C 
ATOM     20  C   UNL     1     140.542 170.872 190.349  0.00  0.00    +0.064 C 
ATOM     21  C   UNL     1     141.532 170.893 191.543  0.00  0.00    +0.020 C 
ATOM     22  C   UNL     1     142.797 170.012 191.289  0.00  0.00    +0.113 C 
ATOM     23  O   UNL     1     143.437 170.615 190.129  0.00  0.00    -0.458 OA
ATOM     24  C   UNL     1     144.775 170.786 190.101  0.00  0.00    +0.332 C 
ATOM     25  O   UNL     1     145.590 170.339 190.910  0.00  0.00    -0.246 OA
ATOM     26  C   UNL     1     145.181 171.601 188.936  0.00  0.00    +0.023 C 
ATOM     27  C   UNL     1     144.330 171.987 187.962  0.00  0.00    -0.052 C 
ATOM     28  C   UNL     1     144.634 172.773 186.770  0.00  0.00    -0.054 C 
ATOM     29  C   UNL     1     143.649 172.959 185.867  0.00  0.00    -0.079 C 
ATOM     30  C   UNL     1     143.723 173.649 184.534  0.00  0.00    -0.008 C 
ATOM     31  C   UNL     1     143.101 172.885 183.347  0.00  0.00    +0.061 C 
ATOM     32  C   UNL     1     143.758 171.541 182.966  0.00  0.00    +0.003 C 
ATOM     33  C   UNL     1     143.323 170.226 183.644  0.00  0.00    +0.080 C 
ATOM     34  O   UNL     1     143.791 170.187 184.996  0.00  0.00    -0.369 OA
ATOM     35  C   UNL     1     143.317 169.083 185.774  0.00  0.00    +0.065 C 
ATOM     36  C   UNL     1     143.862 167.721 185.309  0.00  0.00    +0.000 C 
ATOM     37  C   UNL     1     145.382 167.591 185.570  0.00  0.00    +0.066 C 
ATOM     38  C   UNL     1     145.800 166.100 185.710  0.00  0.00    +0.009 C 
ATOM     39  C   UNL     1     145.555 165.538 187.143  0.00  0.00    +0.063 C 
ATOM     40  C   UNL     1     145.556 163.987 187.171  0.00  0.00    -0.000 C 
ATOM     41  C   UNL     1     144.540 163.294 188.088  0.00  0.00    +0.064 C 
ATOM     42  C   UNL     1     143.064 163.334 187.619  0.00  0.00    +0.020 C 
ATOM     43  C   UNL     1     141.781 169.123 185.868  0.00  0.00    -0.008 C 
ATOM     44  C   UNL     1     141.128 169.449 184.559  0.00  0.00    -0.083 C 
ATOM     45  C   UNL     1     141.847 169.942 183.547  0.00  0.00    -0.059 C 
ATOM     46  C   UNL     1     133.333 169.476 187.400  0.00  0.00    -0.008 C 
ATOM     47  C   UNL     1     132.434 168.686 186.500  0.00  0.00    -0.083 C 
ATOM     48  C   UNL     1     132.723 167.419 186.181  0.00  0.00    -0.059 C 
ATOM     49  H   UNL     1     143.511 163.256 185.541  0.00  0.00    +0.074 HD
ATOM     50  H   UNL     1     139.185 163.804 185.379  0.00  0.00    +0.069 HD
ATOM     51  H   UNL     1     140.246 165.693 183.185  0.00  0.00    +0.062 HD
ATOM     52  H   UNL     1     137.206 163.810 184.052  0.00  0.00    +0.058 HD
ATOM     53  H   UNL     1     135.239 164.397 182.723  0.00  0.00    +0.033 HD
ATOM     54  H   UNL     1     135.517 166.100 182.835  0.00  0.00    +0.033 HD
ATOM     55  H   UNL     1     134.831 164.328 185.241  0.00  0.00    +0.060 HD
ATOM     56  H   UNL     1     135.992 166.358 185.965  0.00  0.00    +0.032 HD
ATOM     57  H   UNL     1     135.038 167.360 184.897  0.00  0.00    +0.032 HD
ATOM     58  H   UNL     1     133.663 165.733 187.070  0.00  0.00    +0.064 HD
ATOM     59  H   UNL     1     135.307 168.979 186.629  0.00  0.00    +0.060 HD
ATOM     60  H   UNL     1     135.043 169.044 189.675  0.00  0.00    +0.032 HD
ATOM     61  H   UNL     1     136.489 168.891 188.706  0.00  0.00    +0.032 HD
ATOM     62  H   UNL     1     134.679 171.340 189.015  0.00  0.00    +0.060 HD
ATOM     63  H   UNL     1     136.791 172.500 189.684  0.00  0.00    +0.035 HD
ATOM     64  H   UNL     1     138.067 169.733 189.853  0.00  0.00    +0.060 HD
ATOM     65  H   UNL     1     138.857 171.080 191.704  0.00  0.00    +0.032 HD
ATOM     66  H   UNL     1     139.120 172.480 190.643  0.00  0.00    +0.032 HD
ATOM     67  H   UNL     1     140.429 169.846 190.001  0.00  0.00    +0.060 HD
ATOM     68  H   UNL     1     140.994 170.495 192.409  0.00  0.00    +0.036 HD
ATOM     69  H   UNL     1     143.462 170.091 192.158  0.00  0.00    +0.074 HD
ATOM     70  H   UNL     1     146.237 171.843 188.911  0.00  0.00    +0.069 HD
ATOM     71  H   UNL     1     143.294 171.656 188.032  0.00  0.00    +0.062 HD
ATOM     72  H   UNL     1     142.667 172.529 186.078  0.00  0.00    +0.058 HD
ATOM     73  H   UNL     1     143.190 174.603 184.644  0.00  0.00    +0.033 HD
ATOM     74  H   UNL     1     144.753 173.893 184.268  0.00  0.00    +0.033 HD
ATOM     75  H   UNL     1     143.276 173.540 182.485  0.00  0.00    +0.060 HD
ATOM     76  H   UNL     1     144.844 171.647 183.082  0.00  0.00    +0.032 HD
ATOM     77  H   UNL     1     143.577 171.402 181.896  0.00  0.00    +0.032 HD
ATOM     78  H   UNL     1     143.848 169.434 183.100  0.00  0.00    +0.064 HD
ATOM     79  H   UNL     1     143.687 169.250 186.794  0.00  0.00    +0.060 HD
ATOM     80  H   UNL     1     143.658 167.561 184.244  0.00  0.00    +0.032 HD
ATOM     81  H   UNL     1     143.309 166.940 185.843  0.00  0.00    +0.032 HD
ATOM     82  H   UNL     1     145.662 168.122 186.489  0.00  0.00    +0.060 HD
ATOM     83  H   UNL     1     145.192 165.528 184.997  0.00  0.00    +0.035 HD
ATOM     84  H   UNL     1     146.374 165.887 187.787  0.00  0.00    +0.060 HD
ATOM     85  H   UNL     1     146.562 163.685 187.500  0.00  0.00    +0.032 HD
ATOM     86  H   UNL     1     145.477 163.588 186.158  0.00  0.00    +0.032 HD
ATOM     87  H   UNL     1     144.828 162.244 188.208  0.00  0.00    +0.060 HD
ATOM     88  H   UNL     1     142.752 164.386 187.550  0.00  0.00    +0.036 HD
ATOM     89  H   UNL     1     141.392 168.174 186.253  0.00  0.00    +0.033 HD
ATOM     90  H   UNL     1     141.484 169.911 186.572  0.00  0.00    +0.033 HD
ATOM     91  H   UNL     1     140.055 169.314 184.470  0.00  0.00    +0.057 HD
ATOM     92  H   UNL     1     141.355 170.176 182.603  0.00  0.00    +0.059 HD
ATOM     93  H   UNL     1     132.847 169.564 188.377  0.00  0.00    +0.033 HD
ATOM     94  H   UNL     1     133.443 170.489 186.996  0.00  0.00    +0.033 HD
ATOM     95  H   UNL     1     131.531 169.155 186.133  0.00  0.00    +0.057 HD
ATOM     96  H   UNL     1     132.048 166.867 185.531  0.00  0.00    +0.059 HD
ENDROOT
BRANCH  28  97
ATOM     97  C   UNL     1     146.037 173.306 186.618  0.00  0.00    -0.040 C 
ATOM     98  H   UNL     1     146.432 173.618 187.590  0.00  0.00    +0.028 HD
ATOM     99  H   UNL     1     146.104 174.188 185.976  0.00  0.00    +0.028 HD
ATOM    100  H   UNL     1     146.700 172.543 186.195  0.00  0.00    +0.028 HD
ENDBRANCH  28  97
BRANCH  21 101
ATOM    101  C   UNL     1     141.960 172.317 191.926  0.00  0.00    -0.057 C 
ATOM    102  H   UNL     1     141.842 172.491 192.998  0.00  0.00    +0.023 HD
ATOM    103  H   UNL     1     143.011 172.475 191.679  0.00  0.00    +0.023 HD
ATOM    104  H   UNL     1     141.383 173.083 191.399  0.00  0.00    +0.023 HD
ENDBRANCH  21 101
BRANCH  42 105
ATOM    105  C   UNL     1     142.138 162.768 188.710  0.00  0.00    -0.057 C 
ATOM    106  H   UNL     1     141.819 161.751 188.478  0.00  0.00    +0.023 HD
ATOM    107  H   UNL     1     141.261 163.399 188.871  0.00  0.00    +0.023 HD
ATOM    108  H   UNL     1     142.675 162.711 189.661  0.00  0.00    +0.023 HD
ENDBRANCH  42 105
BRANCH  17 109
ATOM    109  C   UNL     1     136.140 171.210 191.245  0.00  0.00    -0.058 C 
ATOM    110  H   UNL     1     135.922 172.160 191.732  0.00  0.00    +0.023 HD
ATOM    111  H   UNL     1     136.879 170.697 191.869  0.00  0.00    +0.023 HD
ATOM    112  H   UNL     1     135.232 170.609 191.241  0.00  0.00    +0.023 HD
ENDBRANCH  17 109
BRANCH  38 113
ATOM    113  C   UNL     1     147.270 165.848 185.331  0.00  0.00    -0.058 C 
ATOM    114  H   UNL     1     147.394 165.642 184.261  0.00  0.00    +0.023 HD
ATOM    115  H   UNL     1     147.893 166.722 185.581  0.00  0.00    +0.023 HD
ATOM    116  H   UNL     1     147.679 164.988 185.868  0.00  0.00    +0.023 HD
ENDBRANCH  38 113
BRANCH   7 117
ATOM    117  C   UNL     1     138.006 167.050 183.015  0.00  0.00    -0.040 C 
ATOM    118  H   UNL     1     138.413 167.754 183.746  0.00  0.00    +0.028 HD
ATOM    119  H   UNL     1     136.964 167.323 182.826  0.00  0.00    +0.028 HD
ATOM    120  H   UNL     1     138.539 167.184 182.067  0.00  0.00    +0.028 HD
ENDBRANCH   7 117
BRANCH   1 121
ATOM    121  C   UNL     1     143.086 161.213 185.988  0.00  0.00    +0.020 C 
ATOM    122  H   UNL     1     143.755 160.858 186.779  0.00  0.00    +0.036 HD
BRANCH 121 123
ATOM    123  C   UNL     1     141.819 160.341 186.075  0.00  0.00    -0.057 C 
ATOM    124  H   UNL     1     141.093 160.579 185.293  0.00  0.00    +0.023 HD
ATOM    125  H   UNL     1     142.065 159.278 185.998  0.00  0.00    +0.023 HD
ATOM    126  H   UNL     1     141.334 160.450 187.048  0.00  0.00    +0.023 HD
ENDBRANCH 121 123
BRANCH 121 127
ATOM    127  C   UNL     1     143.782 160.908 184.617  0.00  0.00    +0.064 C 
ATOM    128  H   UNL     1     143.119 160.262 184.028  0.00  0.00    +0.060 HD
BRANCH 127 129
ATOM    129  C   UNL     1     145.160 160.190 184.704  0.00  0.00    -0.017 C 
ATOM    130  H   UNL     1     145.004 159.108 184.745  0.00  0.00    +0.032 HD
BRANCH 129 131
ATOM    131  C   UNL     1     146.035 160.505 183.487  0.00  0.00    -0.060 C 
ATOM    132  H   UNL     1     145.941 161.545 183.165  0.00  0.00    +0.023 HD
ATOM    133  H   UNL     1     147.093 160.313 183.699  0.00  0.00    +0.023 HD
ATOM    134  H   UNL     1     145.746 159.885 182.630  0.00  0.00    +0.023 HD
ENDBRANCH 129 131
BRANCH 129 135
ATOM    135  C   UNL     1     145.967 160.565 185.973  0.00  0.00    -0.046 C 
ATOM    136  H   UNL     1     147.000 160.770 185.664  0.00  0.00    +0.027 HD
ATOM    137  H   UNL     1     145.586 161.497 186.408  0.00  0.00    +0.027 HD
BRANCH 135 138
ATOM    138  C   UNL     1     145.990 159.477 187.055  0.00  0.00    -0.026 C 
ATOM    139  H   UNL     1     145.076 158.880 187.000  0.00  0.00    +0.029 HD
ATOM    140  H   UNL     1     146.828 158.797 186.858  0.00  0.00    +0.029 HD
BRANCH 138 143
ATOM    141  C   UNL     1     147.281 158.242 189.534  0.00  0.00    +0.059 C 
ATOM    142  O   UNL     1     147.271 159.624 189.160  0.00  0.00    -0.373 OA
ATOM    143  C   UNL     1     146.091 160.059 188.476  0.00  0.00    +0.061 C 
ATOM    144  C   UNL     1     144.852 159.769 189.325  0.00  0.00    -0.000 C 
ATOM    145  C   UNL     1     144.784 158.303 189.747  0.00  0.00    +0.063 C 
ATOM    146  C   UNL     1     146.093 157.912 190.429  0.00  0.00    -0.000 C 
ATOM    147  H   UNL     1     147.263 157.626 188.629  0.00  0.00    +0.059 HD
ATOM    148  H   UNL     1     146.185 161.148 188.379  0.00  0.00    +0.060 HD
ATOM    149  H   UNL     1     144.889 160.392 190.230  0.00  0.00    +0.032 HD
ATOM    150  H   UNL     1     143.937 160.060 188.797  0.00  0.00    +0.032 HD
ATOM    151  H   UNL     1     144.618 157.678 188.861  0.00  0.00    +0.060 HD
ATOM    152  H   UNL     1     146.096 156.846 190.688  0.00  0.00    +0.032 HD
ATOM    153  H   UNL     1     146.170 158.459 191.381  0.00  0.00    +0.032 HD
BRANCH 141 154
ATOM    154  C   UNL     1     148.596 157.978 190.251  0.00  0.00    -0.039 C 
ATOM    155  H   UNL     1     149.349 158.731 189.998  0.00  0.00    +0.025 HD
ATOM    156  H   UNL     1     148.449 157.983 191.337  0.00  0.00    +0.025 HD
ATOM    157  H   UNL     1     148.989 156.988 189.994  0.00  0.00    +0.025 HD
ENDBRANCH 141 154
BRANCH 145 158
ATOM    158  O   UNL     1     143.660 158.162 190.621  0.00  0.00    -0.380 OA
BRANCH 158 159
ATOM    159  C   UNL     1     142.492 158.822 190.148  0.00  0.00    +0.037 C 
ATOM    160  H   UNL     1     142.806 159.721 189.611  0.00  0.00    +0.052 HD
ATOM    161  H   UNL     1     141.858 159.128 190.981  0.00  0.00    +0.052 HD
ATOM    162  H   UNL     1     141.928 158.191 189.455  0.00  0.00    +0.052 HD
ENDBRANCH 158 159
ENDBRANCH 145 158
ENDBRANCH 138 143
ENDBRANCH 135 138
ENDBRANCH 129 135
ENDBRANCH 127 129
BRANCH 127 163
ATOM    163  O   UNL     1     143.927 162.121 183.881  0.00  0.00    -0.391 OA
ATOM    164  H   UNL     1     143.097 162.288 183.406  0.00  0.00    +0.210 HD
ENDBRANCH 127 163
ENDBRANCH 121 127
ENDBRANCH   1 121
BRANCH  41 165
ATOM    165  O   UNL     1     144.639 163.902 189.386  0.00  0.00    -0.391 OA
ATOM    166  H   UNL     1     144.806 164.851 189.247  0.00  0.00    +0.210 HD
ENDBRANCH  41 165
BRANCH  39 167
ATOM    167  O   UNL     1     144.380 166.079 187.715  0.00  0.00    -0.391 OA
ATOM    168  H   UNL     1     143.617 165.672 187.250  0.00  0.00    +0.210 HD
ENDBRANCH  39 167
BRANCH  31 169
ATOM    169  O   UNL     1     141.683 172.790 183.430  0.00  0.00    -0.391 OA
ATOM    170  H   UNL     1     141.429 171.852 183.350  0.00  0.00    +0.210 HD
ENDBRANCH  31 169
BRANCH  22 171
ATOM    171  C   UNL     1     142.515 168.502 190.995  0.00  0.00    +0.020 C 
ATOM    172  H   UNL     1     141.525 168.278 191.397  0.00  0.00    +0.036 HD
BRANCH 171 173
ATOM    173  C   UNL     1     142.360 168.249 189.483  0.00  0.00    -0.057 C 
ATOM    174  H   UNL     1     143.336 168.097 189.008  0.00  0.00    +0.023 HD
ATOM    175  H   UNL     1     141.763 167.348 189.293  0.00  0.00    +0.023 HD
ATOM    176  H   UNL     1     141.848 169.079 188.985  0.00  0.00    +0.023 HD
ENDBRANCH 171 173
BRANCH 171 177
ATOM    177  C   UNL     1     143.545 167.459 191.550  0.00  0.00    +0.064 C 
ATOM    178  H   UNL     1     143.480 166.539 190.950  0.00  0.00    +0.060 HD
BRANCH 177 179
ATOM    179  O   UNL     1     144.883 167.920 191.370  0.00  0.00    -0.391 OA
ATOM    180  H   UNL     1     144.841 168.855 191.102  0.00  0.00    +0.210 HD
ENDBRANCH 177 179
BRANCH 177 181
ATOM    181  C   UNL     1     143.321 167.068 193.052  0.00  0.00    -0.017 C 
ATOM    182  H   UNL     1     143.703 167.889 193.675  0.00  0.00    +0.032 HD
BRANCH 181 183
ATOM    183  C   UNL     1     141.827 166.865 193.356  0.00  0.00    -0.060 C 
ATOM    184  H   UNL     1     141.559 165.816 193.196  0.00  0.00    +0.023 HD
ATOM    185  H   UNL     1     141.178 167.483 192.732  0.00  0.00    +0.023 HD
ATOM    186  H   UNL     1     141.583 167.138 194.385  0.00  0.00    +0.023 HD
ENDBRANCH 181 183
BRANCH 181 187
ATOM    187  C   UNL     1     144.121 165.785 193.429  0.00  0.00    -0.046 C 
ATOM    188  H   UNL     1     144.383 165.247 192.514  0.00  0.00    +0.027 HD
ATOM    189  H   UNL     1     143.458 165.138 194.016  0.00  0.00    +0.027 HD
BRANCH 187 190
ATOM    190  C   UNL     1     145.412 166.052 194.227  0.00  0.00    -0.026 C 
ATOM    191  H   UNL     1     145.229 165.782 195.271  0.00  0.00    +0.029 HD
ATOM    192  H   UNL     1     145.620 167.129 194.205  0.00  0.00    +0.029 HD
BRANCH 190 193
ATOM    193  C   UNL     1     146.694 165.291 193.826  0.00  0.00    +0.061 C 
ATOM    194  O   UNL     1     147.582 165.066 194.921  0.00  0.00    -0.373 OA
ATOM    195  C   UNL     1     148.510 166.104 195.210  0.00  0.00    +0.059 C 
ATOM    196  C   UNL     1     149.345 166.465 193.989  0.00  0.00    -0.000 C 
ATOM    197  C   UNL     1     148.435 166.870 192.825  0.00  0.00    +0.063 C 
ATOM    198  C   UNL     1     147.414 165.765 192.563  0.00  0.00    -0.000 C 
ATOM    199  H   UNL     1     146.331 164.281 193.589  0.00  0.00    +0.060 HD
ATOM    200  H   UNL     1     147.965 166.979 195.576  0.00  0.00    +0.059 HD
ATOM    201  H   UNL     1     150.037 167.278 194.234  0.00  0.00    +0.032 HD
ATOM    202  H   UNL     1     149.961 165.617 193.670  0.00  0.00    +0.032 HD
ATOM    203  H   UNL     1     147.924 167.804 193.069  0.00  0.00    +0.060 HD
ATOM    204  H   UNL     1     147.965 164.909 192.147  0.00  0.00    +0.032 HD
ATOM    205  H   UNL     1     146.703 166.062 191.782  0.00  0.00    +0.032 HD
BRANCH 195 206
ATOM    206  C   UNL     1     149.413 165.606 196.332  0.00  0.00    -0.039 C 
ATOM    207  H   UNL     1     150.174 164.925 195.948  0.00  0.00    +0.025 HD
ATOM    208  H   UNL     1     149.912 166.441 196.829  0.00  0.00    +0.025 HD
ATOM    209  H   UNL     1     148.836 165.084 197.099  0.00  0.00    +0.025 HD
ENDBRANCH 195 206
BRANCH 197 210
ATOM    210  O   UNL     1     149.152 167.075 191.601  0.00  0.00    -0.380 OA
BRANCH 210 211
ATOM    211  C   UNL     1     148.543 168.006 190.720  0.00  0.00    +0.037 C 
ATOM    212  H   UNL     1     147.461 167.993 190.852  0.00  0.00    +0.052 HD
ATOM    213  H   UNL     1     148.898 169.007 190.981  0.00  0.00    +0.052 HD
ATOM    214  H   UNL     1     148.805 167.801 189.680  0.00  0.00    +0.052 HD
ENDBRANCH 210 211
ENDBRANCH 197 210
ENDBRANCH 190 193
ENDBRANCH 187 190
ENDBRANCH 181 187
ENDBRANCH 177 181
ENDBRANCH 171 177
ENDBRANCH  22 171
BRANCH  20 215
ATOM    215  O   UNL     1     141.001 171.634 189.224  0.00  0.00    -0.391 OA
ATOM    216  H   UNL     1     141.046 172.572 189.477  0.00  0.00    +0.210 HD
ENDBRANCH  20 215
BRANCH  18 217
ATOM    217  O   UNL     1     138.552 171.002 188.337  0.00  0.00    -0.391 OA
ATOM    218  H   UNL     1     139.531 170.953 188.297  0.00  0.00    +0.210 HD
ENDBRANCH  18 217
BRANCH  10 219
ATOM    219  O   UNL     1     133.349 165.247 184.188  0.00  0.00    -0.391 OA
ATOM    220  H   UNL     1     132.774 165.097 184.959  0.00  0.00    +0.210 HD
ENDBRANCH  10 219
BRANCH  37 221
ATOM    221  O   UNL     1     146.054 168.164 184.437  0.00  0.00    -0.379 OA
BRANCH 221 222
ATOM    222  C   UNL     1     146.954 169.201 184.805  0.00  0.00    +0.037 C 
ATOM    223  H   UNL     1     147.234 169.795 183.929  0.00  0.00    +0.052 HD
ATOM    224  H   UNL     1     147.853 168.794 185.277  0.00  0.00    +0.052 HD
ATOM    225  H   UNL     1     146.455 169.858 185.526  0.00  0.00    +0.052 HD
ENDBRANCH 221 222
ENDBRANCH  37 221
BRANCH  16 226
ATOM    226  O   UNL     1     135.967 171.338 187.426  0.00  0.00    -0.379 OA
BRANCH 226 227
ATOM    227  C   UNL     1     135.603 172.677 187.127  0.00  0.00    +0.037 C 
ATOM    228  H   UNL     1     136.005 173.317 187.917  0.00  0.00    +0.052 HD
ATOM    229  H   UNL     1     136.035 173.001 186.173  0.00  0.00    +0.052 HD
ATOM    230  H   UNL     1     134.517 172.801 187.115  0.00  0.00    +0.052 HD
ENDBRANCH 226 227
ENDBRANCH  16 226
TORSDOF 40
ENDMDL
MODEL 8
REMARK VINA RESULT:      -5.7      4.230     10.955
REMARK  Name = Swinholide A_conf2
REMARK  40 active torsions:
REMARK  status: ('A' for Active; 'I' for Inactive)
REMARK    1  A    between atoms: C_1  and  C_2
REMARK    2  A    between atoms: C_4  and  C_10
REMARK    3  A    between atoms: C_6  and  O_8
REMARK    4  A    between atoms: O_8  and  C_9
REMARK    5  A    between atoms: C_10  and  C_11
REMARK    6  A    between atoms: C_11  and  C_12
REMARK    7  A    between atoms: C_12  and  C_13
REMARK    8  A    between atoms: C_12  and  C_98
REMARK    9  A    between atoms: C_13  and  O_14
REMARK   10  A    between atoms: C_13  and  C_15
REMARK   11  A    between atoms: C_15  and  C_16
REMARK   12  A    between atoms: C_15  and  C_97
REMARK   13  A    between atoms: C_22  and  C_96
REMARK   14  A    between atoms: C_25  and  O_95
REMARK   15  A    between atoms: C_31  and  O_90
REMARK   16  A    between atoms: C_32  and  C_89
REMARK   17  A    between atoms: C_33  and  O_88
REMARK   18  A    between atoms: C_35  and  O_87
REMARK   19  A    between atoms: C_36  and  C_86
REMARK   20  A    between atoms: C_37  and  C_69
REMARK   21  A    between atoms: C_43  and  C_68
REMARK   22  A    between atoms: C_46  and  O_67
REMARK   23  A    between atoms: C_52  and  O_62
REMARK   24  A    between atoms: C_53  and  C_61
REMARK   25  A    between atoms: C_54  and  O_60
REMARK   26  A    between atoms: C_56  and  O_59
REMARK   27  A    between atoms: C_57  and  C_58
REMARK   28  A    between atoms: O_62  and  C_63
REMARK   29  A    between atoms: C_69  and  C_70
REMARK   30  A    between atoms: C_69  and  C_85
REMARK   31  A    between atoms: C_70  and  O_71
REMARK   32  A    between atoms: C_70  and  C_72
REMARK   33  A    between atoms: C_72  and  C_73
REMARK   34  A    between atoms: C_72  and  C_84
REMARK   35  A    between atoms: C_73  and  C_74
REMARK   36  A    between atoms: C_74  and  C_75
REMARK   37  A    between atoms: C_77  and  C_83
REMARK   38  A    between atoms: C_79  and  O_81
REMARK   39  A    between atoms: O_81  and  C_82
REMARK   40  A    between atoms: O_90  and  C_91
REMARK                            x       y       z     vdW  Elec       q    Type
REMARK                         _______ _______ _______ _____ _____    ______ ____
ROOT
ATOM      1  C   UNL     1     142.059 178.981 189.566  0.00  0.00    +0.113 C 
ATOM      2  O   UNL     1     141.409 178.619 190.813  0.00  0.00    -0.458 OA
ATOM      3  C   UNL     1     141.766 177.425 191.344  0.00  0.00    +0.332 C 
ATOM      4  O   UNL     1     142.594 176.645 190.909  0.00  0.00    -0.246 OA
ATOM      5  C   UNL     1     140.943 177.181 192.549  0.00  0.00    +0.023 C 
ATOM      6  C   UNL     1     141.187 176.096 193.300  0.00  0.00    -0.052 C 
ATOM      7  C   UNL     1     140.422 175.662 194.464  0.00  0.00    -0.054 C 
ATOM      8  C   UNL     1     139.816 176.531 195.297  0.00  0.00    -0.079 C 
ATOM      9  C   UNL     1     139.065 176.183 196.558  0.00  0.00    -0.008 C 
ATOM     10  C   UNL     1     137.555 176.495 196.503  0.00  0.00    +0.061 C 
ATOM     11  C   UNL     1     136.792 175.540 195.571  0.00  0.00    +0.003 C 
ATOM     12  C   UNL     1     135.256 175.661 195.652  0.00  0.00    +0.080 C 
ATOM     13  O   UNL     1     134.649 175.255 194.405  0.00  0.00    -0.369 OA
ATOM     14  C   UNL     1     134.561 173.827 194.233  0.00  0.00    +0.065 C 
ATOM     15  C   UNL     1     134.031 173.584 192.809  0.00  0.00    +0.000 C 
ATOM     16  C   UNL     1     133.748 172.104 192.464  0.00  0.00    +0.066 C 
ATOM     17  C   UNL     1     133.475 171.863 190.939  0.00  0.00    +0.009 C 
ATOM     18  C   UNL     1     134.616 172.344 190.009  0.00  0.00    +0.063 C 
ATOM     19  C   UNL     1     134.371 172.023 188.513  0.00  0.00    -0.000 C 
ATOM     20  C   UNL     1     135.623 172.368 187.692  0.00  0.00    +0.064 C 
ATOM     21  C   UNL     1     135.348 172.628 186.188  0.00  0.00    +0.020 C 
ATOM     22  C   UNL     1     136.535 173.354 185.477  0.00  0.00    +0.113 C 
ATOM     23  O   UNL     1     137.655 172.434 185.604  0.00  0.00    -0.458 OA
ATOM     24  C   UNL     1     138.471 172.205 184.553  0.00  0.00    +0.332 C 
ATOM     25  O   UNL     1     138.484 172.819 183.486  0.00  0.00    -0.246 OA
ATOM     26  C   UNL     1     139.399 171.089 184.837  0.00  0.00    +0.023 C 
ATOM     27  C   UNL     1     139.501 170.491 186.042  0.00  0.00    -0.052 C 
ATOM     28  C   UNL     1     140.393 169.400 186.425  0.00  0.00    -0.054 C 
ATOM     29  C   UNL     1     140.406 169.018 187.720  0.00  0.00    -0.079 C 
ATOM     30  C   UNL     1     141.281 167.992 188.381  0.00  0.00    -0.008 C 
ATOM     31  C   UNL     1     141.957 168.432 189.695  0.00  0.00    +0.061 C 
ATOM     32  C   UNL     1     142.968 169.594 189.600  0.00  0.00    +0.003 C 
ATOM     33  C   UNL     1     142.503 171.060 189.706  0.00  0.00    +0.080 C 
ATOM     34  O   UNL     1     141.799 171.443 188.521  0.00  0.00    -0.369 OA
ATOM     35  C   UNL     1     141.184 172.735 188.567  0.00  0.00    +0.065 C 
ATOM     36  C   UNL     1     142.193 173.897 188.613  0.00  0.00    +0.000 C 
ATOM     37  C   UNL     1     142.978 174.028 187.286  0.00  0.00    +0.066 C 
ATOM     38  C   UNL     1     143.488 175.483 187.079  0.00  0.00    +0.009 C 
ATOM     39  C   UNL     1     142.401 176.420 186.473  0.00  0.00    +0.063 C 
ATOM     40  C   UNL     1     142.748 177.920 186.668  0.00  0.00    -0.000 C 
ATOM     41  C   UNL     1     141.594 178.878 186.995  0.00  0.00    +0.064 C 
ATOM     42  C   UNL     1     141.012 178.774 188.427  0.00  0.00    +0.020 C 
ATOM     43  C   UNL     1     140.146 172.787 189.702  0.00  0.00    -0.008 C 
ATOM     44  C   UNL     1     140.635 172.148 190.966  0.00  0.00    -0.083 C 
ATOM     45  C   UNL     1     141.721 171.370 190.955  0.00  0.00    -0.059 C 
ATOM     46  C   UNL     1     133.647 173.218 195.307  0.00  0.00    -0.008 C 
ATOM     47  C   UNL     1     133.942 173.773 196.666  0.00  0.00    -0.083 C 
ATOM     48  C   UNL     1     134.659 174.893 196.810  0.00  0.00    -0.059 C 
ATOM     49  H   UNL     1     142.856 178.269 189.358  0.00  0.00    +0.074 HD
ATOM     50  H   UNL     1     140.147 177.881 192.755  0.00  0.00    +0.069 HD
ATOM     51  H   UNL     1     141.996 175.427 193.008  0.00  0.00    +0.062 HD
ATOM     52  H   UNL     1     139.897 177.601 195.108  0.00  0.00    +0.058 HD
ATOM     53  H   UNL     1     139.519 176.760 197.374  0.00  0.00    +0.033 HD
ATOM     54  H   UNL     1     139.207 175.140 196.855  0.00  0.00    +0.033 HD
ATOM     55  H   UNL     1     137.406 177.523 196.163  0.00  0.00    +0.060 HD
ATOM     56  H   UNL     1     137.113 175.717 194.538  0.00  0.00    +0.032 HD
ATOM     57  H   UNL     1     137.075 174.505 195.796  0.00  0.00    +0.032 HD
ATOM     58  H   UNL     1     134.983 176.715 195.765  0.00  0.00    +0.064 HD
ATOM     59  H   UNL     1     135.571 173.405 194.306  0.00  0.00    +0.060 HD
ATOM     60  H   UNL     1     133.123 174.176 192.644  0.00  0.00    +0.032 HD
ATOM     61  H   UNL     1     134.783 174.000 192.128  0.00  0.00    +0.032 HD
ATOM     62  H   UNL     1     132.845 171.805 193.015  0.00  0.00    +0.060 HD
ATOM     63  H   UNL     1     133.391 170.780 190.800  0.00  0.00    +0.035 HD
ATOM     64  H   UNL     1     134.715 173.433 190.082  0.00  0.00    +0.060 HD
ATOM     65  H   UNL     1     133.513 172.604 188.151  0.00  0.00    +0.032 HD
ATOM     66  H   UNL     1     134.136 170.960 188.401  0.00  0.00    +0.032 HD
ATOM     67  H   UNL     1     136.054 173.266 188.134  0.00  0.00    +0.060 HD
ATOM     68  H   UNL     1     134.461 173.267 186.133  0.00  0.00    +0.036 HD
ATOM     69  H   UNL     1     136.284 173.484 184.417  0.00  0.00    +0.074 HD
ATOM     70  H   UNL     1     140.020 170.805 183.996  0.00  0.00    +0.069 HD
ATOM     71  H   UNL     1     138.881 170.872 186.853  0.00  0.00    +0.062 HD
ATOM     72  H   UNL     1     139.737 169.531 188.415  0.00  0.00    +0.058 HD
ATOM     73  H   UNL     1     140.641 167.126 188.599  0.00  0.00    +0.033 HD
ATOM     74  H   UNL     1     142.065 167.641 187.707  0.00  0.00    +0.033 HD
ATOM     75  H   UNL     1     142.553 167.561 189.995  0.00  0.00    +0.060 HD
ATOM     76  H   UNL     1     143.536 169.477 188.668  0.00  0.00    +0.032 HD
ATOM     77  H   UNL     1     143.685 169.446 190.414  0.00  0.00    +0.032 HD
ATOM     78  H   UNL     1     143.423 171.653 189.738  0.00  0.00    +0.064 HD
ATOM     79  H   UNL     1     140.616 172.835 187.633  0.00  0.00    +0.060 HD
ATOM     80  H   UNL     1     142.896 173.772 189.444  0.00  0.00    +0.032 HD
ATOM     81  H   UNL     1     141.635 174.815 188.826  0.00  0.00    +0.032 HD
ATOM     82  H   UNL     1     142.344 173.754 186.433  0.00  0.00    +0.060 HD
ATOM     83  H   UNL     1     143.774 175.866 188.067  0.00  0.00    +0.035 HD
ATOM     84  H   UNL     1     142.350 176.225 185.392  0.00  0.00    +0.060 HD
ATOM     85  H   UNL     1     143.203 178.257 185.723  0.00  0.00    +0.032 HD
ATOM     86  H   UNL     1     143.547 178.034 187.402  0.00  0.00    +0.032 HD
ATOM     87  H   UNL     1     141.933 179.907 186.842  0.00  0.00    +0.060 HD
ATOM     88  H   UNL     1     140.621 177.757 188.568  0.00  0.00    +0.036 HD
ATOM     89  H   UNL     1     139.840 173.821 189.901  0.00  0.00    +0.033 HD
ATOM     90  H   UNL     1     139.250 172.232 189.396  0.00  0.00    +0.033 HD
ATOM     91  H   UNL     1     140.064 172.299 191.876  0.00  0.00    +0.057 HD
ATOM     92  H   UNL     1     142.061 170.910 191.883  0.00  0.00    +0.059 HD
ATOM     93  H   UNL     1     132.595 173.418 195.078  0.00  0.00    +0.033 HD
ATOM     94  H   UNL     1     133.776 172.130 195.329  0.00  0.00    +0.033 HD
ATOM     95  H   UNL     1     133.540 173.260 197.530  0.00  0.00    +0.057 HD
ATOM     96  H   UNL     1     134.853 175.277 197.808  0.00  0.00    +0.059 HD
ENDROOT
BRANCH  28  97
ATOM     97  C   UNL     1     141.256 168.787 185.351  0.00  0.00    -0.040 C 
ATOM     98  H   UNL     1     142.146 169.401 185.181  0.00  0.00    +0.028 HD
ATOM     99  H   UNL     1     140.759 168.714 184.379  0.00  0.00    +0.028 HD
ATOM    100  H   UNL     1     141.571 167.776 185.632  0.00  0.00    +0.028 HD
ENDBRANCH  28  97
BRANCH  21 101
ATOM    101  C   UNL     1     134.993 171.344 185.425  0.00  0.00    -0.057 C 
ATOM    102  H   UNL     1     134.826 170.510 186.111  0.00  0.00    +0.023 HD
ATOM    103  H   UNL     1     134.076 171.488 184.850  0.00  0.00    +0.023 HD
ATOM    104  H   UNL     1     135.775 171.045 184.722  0.00  0.00    +0.023 HD
ENDBRANCH  21 101
BRANCH  42 105
ATOM    105  C   UNL     1     139.756 179.653 188.560  0.00  0.00    -0.057 C 
ATOM    106  H   UNL     1     139.766 180.230 189.486  0.00  0.00    +0.023 HD
ATOM    107  H   UNL     1     138.837 179.064 188.506  0.00  0.00    +0.023 HD
ATOM    108  H   UNL     1     139.723 180.380 187.745  0.00  0.00    +0.023 HD
ENDBRANCH  42 105
BRANCH  17 109
ATOM    109  C   UNL     1     132.128 172.470 190.532  0.00  0.00    -0.058 C 
ATOM    110  H   UNL     1     131.764 172.042 189.598  0.00  0.00    +0.023 HD
ATOM    111  H   UNL     1     132.228 173.548 190.368  0.00  0.00    +0.023 HD
ATOM    112  H   UNL     1     131.368 172.319 191.298  0.00  0.00    +0.023 HD
ENDBRANCH  17 109
BRANCH  38 113
ATOM    113  C   UNL     1     144.748 175.561 186.199  0.00  0.00    -0.058 C 
ATOM    114  H   UNL     1     145.137 176.583 186.118  0.00  0.00    +0.023 HD
ATOM    115  H   UNL     1     145.549 174.926 186.609  0.00  0.00    +0.023 HD
ATOM    116  H   UNL     1     144.544 175.218 185.181  0.00  0.00    +0.023 HD
ENDBRANCH  38 113
BRANCH   7 117
ATOM    117  C   UNL     1     140.402 174.170 194.673  0.00  0.00    -0.040 C 
ATOM    118  H   UNL     1     139.406 173.771 194.466  0.00  0.00    +0.028 HD
ATOM    119  H   UNL     1     140.664 173.908 195.702  0.00  0.00    +0.028 HD
ATOM    120  H   UNL     1     141.125 173.656 194.029  0.00  0.00    +0.028 HD
ENDBRANCH   7 117
BRANCH   1 121
ATOM    121  C   UNL     1     142.742 180.373 189.697  0.00  0.00    +0.020 C 
ATOM    122  H   UNL     1     142.707 180.875 188.725  0.00  0.00    +0.036 HD
BRANCH 121 123
ATOM    123  C   UNL     1     142.043 181.318 190.693  0.00  0.00    -0.057 C 
ATOM    124  H   UNL     1     142.750 181.954 191.232  0.00  0.00    +0.023 HD
ATOM    125  H   UNL     1     141.324 181.966 190.183  0.00  0.00    +0.023 HD
ATOM    126  H   UNL     1     141.453 180.755 191.419  0.00  0.00    +0.023 HD
ENDBRANCH 121 123
BRANCH 121 127
ATOM    127  C   UNL     1     144.249 180.269 190.115  0.00  0.00    +0.064 C 
ATOM    128  H   UNL     1     144.321 180.439 191.197  0.00  0.00    +0.060 HD
BRANCH 127 129
ATOM    129  C   UNL     1     145.212 181.281 189.429  0.00  0.00    -0.017 C 
ATOM    130  H   UNL     1     146.151 180.778 189.180  0.00  0.00    +0.032 HD
BRANCH 129 131
ATOM    131  C   UNL     1     144.609 181.843 188.137  0.00  0.00    -0.060 C 
ATOM    132  H   UNL     1     145.228 182.629 187.697  0.00  0.00    +0.023 HD
ATOM    133  H   UNL     1     144.480 181.056 187.385  0.00  0.00    +0.023 HD
ATOM    134  H   UNL     1     143.627 182.288 188.330  0.00  0.00    +0.023 HD
ENDBRANCH 129 131
BRANCH 129 135
ATOM    135  C   UNL     1     145.584 182.482 190.336  0.00  0.00    -0.046 C 
ATOM    136  H   UNL     1     144.651 182.961 190.655  0.00  0.00    +0.027 HD
ATOM    137  H   UNL     1     146.079 182.133 191.249  0.00  0.00    +0.027 HD
BRANCH 135 138
ATOM    138  C   UNL     1     146.466 183.539 189.657  0.00  0.00    -0.026 C 
ATOM    139  H   UNL     1     146.316 183.507 188.574  0.00  0.00    +0.029 HD
ATOM    140  H   UNL     1     146.151 184.535 189.993  0.00  0.00    +0.029 HD
BRANCH 138 143
ATOM    141  C   UNL     1     148.849 185.116 188.573  0.00  0.00    +0.059 C 
ATOM    142  O   UNL     1     148.707 184.548 189.881  0.00  0.00    -0.373 OA
ATOM    143  C   UNL     1     147.963 183.326 189.934  0.00  0.00    +0.061 C 
ATOM    144  C   UNL     1     148.595 182.284 189.009  0.00  0.00    -0.000 C 
ATOM    145  C   UNL     1     148.761 182.814 187.586  0.00  0.00    +0.063 C 
ATOM    146  C   UNL     1     149.525 184.135 187.625  0.00  0.00    -0.000 C 
ATOM    147  H   UNL     1     147.860 185.396 188.196  0.00  0.00    +0.059 HD
ATOM    148  H   UNL     1     148.058 182.962 190.965  0.00  0.00    +0.060 HD
ATOM    149  H   UNL     1     149.588 182.017 189.400  0.00  0.00    +0.032 HD
ATOM    150  H   UNL     1     148.014 181.355 189.009  0.00  0.00    +0.032 HD
ATOM    151  H   UNL     1     147.771 182.962 187.138  0.00  0.00    +0.060 HD
ATOM    152  H   UNL     1     149.605 184.570 186.621  0.00  0.00    +0.032 HD
ATOM    153  H   UNL     1     150.556 183.935 187.955  0.00  0.00    +0.032 HD
BRANCH 141 154
ATOM    154  C   UNL     1     149.669 186.388 188.722  0.00  0.00    -0.039 C 
ATOM    155  H   UNL     1     150.580 186.214 189.302  0.00  0.00    +0.025 HD
ATOM    156  H   UNL     1     149.951 186.780 187.737  0.00  0.00    +0.025 HD
ATOM    157  H   UNL     1     149.083 187.174 189.213  0.00  0.00    +0.025 HD
ENDBRANCH 141 154
BRANCH 145 158
ATOM    158  O   UNL     1     149.454 181.812 186.836  0.00  0.00    -0.380 OA
BRANCH 158 159
ATOM    159  C   UNL     1     150.582 182.316 186.131  0.00  0.00    +0.037 C 
ATOM    160  H   UNL     1     151.427 182.350 186.823  0.00  0.00    +0.052 HD
ATOM    161  H   UNL     1     150.392 183.330 185.775  0.00  0.00    +0.052 HD
ATOM    162  H   UNL     1     150.853 181.666 185.293  0.00  0.00    +0.052 HD
ENDBRANCH 158 159
ENDBRANCH 145 158
ENDBRANCH 138 143
ENDBRANCH 135 138
ENDBRANCH 129 135
ENDBRANCH 127 129
BRANCH 127 163
ATOM    163  O   UNL     1     144.713 178.941 189.880  0.00  0.00    -0.391 OA
ATOM    164  H   UNL     1     144.006 178.446 189.437  0.00  0.00    +0.210 HD
ENDBRANCH 127 163
ENDBRANCH 121 127
ENDBRANCH   1 121
BRANCH  41 165
ATOM    165  O   UNL     1     140.546 178.640 186.042  0.00  0.00    -0.391 OA
ATOM    166  H   UNL     1     140.402 177.677 186.007  0.00  0.00    +0.210 HD
ENDBRANCH  41 165
BRANCH  39 167
ATOM    167  O   UNL     1     141.114 176.104 186.966  0.00  0.00    -0.391 OA
ATOM    168  H   UNL     1     141.238 175.561 187.773  0.00  0.00    +0.210 HD
ENDBRANCH  39 167
BRANCH  31 169
ATOM    169  O   UNL     1     141.032 168.606 190.764  0.00  0.00    -0.391 OA
ATOM    170  H   UNL     1     140.566 167.763 190.911  0.00  0.00    +0.210 HD
ENDBRANCH  31 169
BRANCH  22 171
ATOM    171  C   UNL     1     136.935 174.738 186.084  0.00  0.00    +0.020 C 
ATOM    172  H   UNL     1     136.131 175.034 186.761  0.00  0.00    +0.036 HD
BRANCH 171 173
ATOM    173  C   UNL     1     138.160 174.608 187.010  0.00  0.00    -0.057 C 
ATOM    174  H   UNL     1     138.755 175.529 187.005  0.00  0.00    +0.023 HD
ATOM    175  H   UNL     1     137.853 174.425 188.047  0.00  0.00    +0.023 HD
ATOM    176  H   UNL     1     138.800 173.771 186.715  0.00  0.00    +0.023 HD
ENDBRANCH 171 173
BRANCH 171 177
ATOM    177  C   UNL     1     137.219 175.907 185.078  0.00  0.00    +0.064 C 
ATOM    178  H   UNL     1     138.294 176.139 185.096  0.00  0.00    +0.060 HD
BRANCH 177 179
ATOM    179  O   UNL     1     136.953 175.500 183.738  0.00  0.00    -0.391 OA
ATOM    180  H   UNL     1     136.065 175.100 183.720  0.00  0.00    +0.210 HD
ENDBRANCH 177 179
BRANCH 177 181
ATOM    181  C   UNL     1     136.438 177.231 185.391  0.00  0.00    -0.017 C 
ATOM    182  H   UNL     1     137.175 178.035 185.522  0.00  0.00    +0.032 HD
BRANCH 181 183
ATOM    183  C   UNL     1     135.492 177.605 184.237  0.00  0.00    -0.060 C 
ATOM    184  H   UNL     1     134.624 178.141 184.632  0.00  0.00    +0.023 HD
ATOM    185  H   UNL     1     135.133 176.734 183.682  0.00  0.00    +0.023 HD
ATOM    186  H   UNL     1     135.988 178.234 183.495  0.00  0.00    +0.023 HD
ENDBRANCH 181 183
BRANCH 181 187
ATOM    187  C   UNL     1     135.635 177.114 186.721  0.00  0.00    -0.046 C 
ATOM    188  H   UNL     1     135.461 176.057 186.941  0.00  0.00    +0.027 HD
ATOM    189  H   UNL     1     134.657 177.585 186.565  0.00  0.00    +0.027 HD
BRANCH 187 190
ATOM    190  C   UNL     1     136.324 177.760 187.939  0.00  0.00    -0.026 C 
ATOM    191  H   UNL     1     136.203 178.844 187.862  0.00  0.00    +0.029 HD
ATOM    192  H   UNL     1     137.399 177.551 187.884  0.00  0.00    +0.029 HD
BRANCH 190 193
ATOM    193  C   UNL     1     135.818 177.390 189.350  0.00  0.00    +0.061 C 
ATOM    194  O   UNL     1     136.249 178.302 190.360  0.00  0.00    -0.373 OA
ATOM    195  C   UNL     1     137.518 178.045 190.949  0.00  0.00    +0.059 C 
ATOM    196  C   UNL     1     137.597 176.636 191.518  0.00  0.00    -0.000 C 
ATOM    197  C   UNL     1     137.295 175.604 190.425  0.00  0.00    +0.063 C 
ATOM    198  C   UNL     1     135.953 175.926 189.772  0.00  0.00    -0.000 C 
ATOM    199  H   UNL     1     134.736 177.576 189.294  0.00  0.00    +0.060 HD
ATOM    200  H   UNL     1     138.299 178.201 190.198  0.00  0.00    +0.059 HD
ATOM    201  H   UNL     1     138.589 176.457 191.947  0.00  0.00    +0.032 HD
ATOM    202  H   UNL     1     136.877 176.500 192.332  0.00  0.00    +0.032 HD
ATOM    203  H   UNL     1     138.091 175.622 189.677  0.00  0.00    +0.060 HD
ATOM    204  H   UNL     1     135.173 175.718 190.519  0.00  0.00    +0.032 HD
ATOM    205  H   UNL     1     135.748 175.246 188.937  0.00  0.00    +0.032 HD
BRANCH 195 206
ATOM    206  C   UNL     1     137.720 179.069 192.059  0.00  0.00    -0.039 C 
ATOM    207  H   UNL     1     137.105 179.955 191.890  0.00  0.00    +0.025 HD
ATOM    208  H   UNL     1     137.459 178.645 193.031  0.00  0.00    +0.025 HD
ATOM    209  H   UNL     1     138.765 179.380 192.122  0.00  0.00    +0.025 HD
ENDBRANCH 195 206
BRANCH 197 210
ATOM    210  O   UNL     1     137.204 174.266 190.931  0.00  0.00    -0.380 OA
BRANCH 210 211
ATOM    211  C   UNL     1     137.697 174.109 192.252  0.00  0.00    +0.037 C 
ATOM    212  H   UNL     1     138.436 174.881 192.469  0.00  0.00    +0.052 HD
ATOM    213  H   UNL     1     136.863 174.243 192.947  0.00  0.00    +0.052 HD
ATOM    214  H   UNL     1     138.124 173.116 192.403  0.00  0.00    +0.052 HD
ENDBRANCH 210 211
ENDBRANCH 197 210
ENDBRANCH 190 193
ENDBRANCH 187 190
ENDBRANCH 181 187
ENDBRANCH 177 181
ENDBRANCH 171 177
ENDBRANCH  22 171
BRANCH  20 215
ATOM    215  O   UNL     1     136.567 171.311 187.917  0.00  0.00    -0.391 OA
ATOM    216  H   UNL     1     137.446 171.702 188.061  0.00  0.00    +0.210 HD
ENDBRANCH  20 215
BRANCH  18 217
ATOM    217  O   UNL     1     135.847 171.783 190.455  0.00  0.00    -0.391 OA
ATOM    218  H   UNL     1     136.229 172.335 191.172  0.00  0.00    +0.210 HD
ENDBRANCH  18 217
BRANCH  10 219
ATOM    219  O   UNL     1     137.048 176.418 197.836  0.00  0.00    -0.391 OA
ATOM    220  H   UNL     1     137.805 176.300 198.437  0.00  0.00    +0.210 HD
ENDBRANCH  10 219
BRANCH  37 221
ATOM    221  O   UNL     1     144.106 173.143 187.375  0.00  0.00    -0.379 OA
BRANCH 221 222
ATOM    222  C   UNL     1     144.140 172.198 186.314  0.00  0.00    +0.037 C 
ATOM    223  H   UNL     1     145.007 171.537 186.417  0.00  0.00    +0.052 HD
ATOM    224  H   UNL     1     144.171 172.697 185.341  0.00  0.00    +0.052 HD
ATOM    225  H   UNL     1     143.232 171.588 186.359  0.00  0.00    +0.052 HD
ENDBRANCH 221 222
ENDBRANCH  37 221
BRANCH  16 226
ATOM    226  O   UNL     1     134.832 171.323 192.982  0.00  0.00    -0.379 OA
BRANCH 226 227
ATOM    227  C   UNL     1     134.514 169.966 193.250  0.00  0.00    +0.037 C 
ATOM    228  H   UNL     1     134.209 169.894 194.297  0.00  0.00    +0.052 HD
ATOM    229  H   UNL     1     133.679 169.625 192.627  0.00  0.00    +0.052 HD
ATOM    230  H   UNL     1     135.384 169.318 193.110  0.00  0.00    +0.052 HD
ENDBRANCH 226 227
ENDBRANCH  16 226
TORSDOF 40
ENDMDL
MODEL 9
REMARK VINA RESULT:      -5.6      2.784      4.548
REMARK  Name = Swinholide A_conf2
REMARK  40 active torsions:
REMARK  status: ('A' for Active; 'I' for Inactive)
REMARK    1  A    between atoms: C_1  and  C_2
REMARK    2  A    between atoms: C_4  and  C_10
REMARK    3  A    between atoms: C_6  and  O_8
REMARK    4  A    between atoms: O_8  and  C_9
REMARK    5  A    between atoms: C_10  and  C_11
REMARK    6  A    between atoms: C_11  and  C_12
REMARK    7  A    between atoms: C_12  and  C_13
REMARK    8  A    between atoms: C_12  and  C_98
REMARK    9  A    between atoms: C_13  and  O_14
REMARK   10  A    between atoms: C_13  and  C_15
REMARK   11  A    between atoms: C_15  and  C_16
REMARK   12  A    between atoms: C_15  and  C_97
REMARK   13  A    between atoms: C_22  and  C_96
REMARK   14  A    between atoms: C_25  and  O_95
REMARK   15  A    between atoms: C_31  and  O_90
REMARK   16  A    between atoms: C_32  and  C_89
REMARK   17  A    between atoms: C_33  and  O_88
REMARK   18  A    between atoms: C_35  and  O_87
REMARK   19  A    between atoms: C_36  and  C_86
REMARK   20  A    between atoms: C_37  and  C_69
REMARK   21  A    between atoms: C_43  and  C_68
REMARK   22  A    between atoms: C_46  and  O_67
REMARK   23  A    between atoms: C_52  and  O_62
REMARK   24  A    between atoms: C_53  and  C_61
REMARK   25  A    between atoms: C_54  and  O_60
REMARK   26  A    between atoms: C_56  and  O_59
REMARK   27  A    between atoms: C_57  and  C_58
REMARK   28  A    between atoms: O_62  and  C_63
REMARK   29  A    between atoms: C_69  and  C_70
REMARK   30  A    between atoms: C_69  and  C_85
REMARK   31  A    between atoms: C_70  and  O_71
REMARK   32  A    between atoms: C_70  and  C_72
REMARK   33  A    between atoms: C_72  and  C_73
REMARK   34  A    between atoms: C_72  and  C_84
REMARK   35  A    between atoms: C_73  and  C_74
REMARK   36  A    between atoms: C_74  and  C_75
REMARK   37  A    between atoms: C_77  and  C_83
REMARK   38  A    between atoms: C_79  and  O_81
REMARK   39  A    between atoms: O_81  and  C_82
REMARK   40  A    between atoms: O_90  and  C_91
REMARK                            x       y       z     vdW  Elec       q    Type
REMARK                         _______ _______ _______ _____ _____    ______ ____
ROOT
ATOM      1  C   UNL     1     143.418 167.236 188.876  0.00  0.00    +0.113 C 
ATOM      2  O   UNL     1     143.043 168.348 189.731  0.00  0.00    -0.458 OA
ATOM      3  C   UNL     1     141.741 168.718 189.689  0.00  0.00    +0.332 C 
ATOM      4  O   UNL     1     140.850 168.198 189.042  0.00  0.00    -0.246 OA
ATOM      5  C   UNL     1     141.563 169.914 190.542  0.00  0.00    +0.023 C 
ATOM      6  C   UNL     1     140.329 170.406 190.731  0.00  0.00    -0.052 C 
ATOM      7  C   UNL     1     139.987 171.619 191.466  0.00  0.00    -0.054 C 
ATOM      8  C   UNL     1     140.696 172.045 192.530  0.00  0.00    -0.079 C 
ATOM      9  C   UNL     1     140.380 173.241 193.391  0.00  0.00    -0.008 C 
ATOM     10  C   UNL     1     141.426 174.373 193.313  0.00  0.00    +0.061 C 
ATOM     11  C   UNL     1     141.393 175.110 191.965  0.00  0.00    +0.003 C 
ATOM     12  C   UNL     1     142.257 176.388 191.915  0.00  0.00    +0.080 C 
ATOM     13  O   UNL     1     142.681 176.661 190.560  0.00  0.00    -0.369 OA
ATOM     14  C   UNL     1     141.667 177.274 189.741  0.00  0.00    +0.065 C 
ATOM     15  C   UNL     1     142.239 177.355 188.314  0.00  0.00    +0.000 C 
ATOM     16  C   UNL     1     141.345 178.097 187.295  0.00  0.00    +0.066 C 
ATOM     17  C   UNL     1     141.820 177.927 185.812  0.00  0.00    +0.009 C 
ATOM     18  C   UNL     1     141.924 176.453 185.347  0.00  0.00    +0.063 C 
ATOM     19  C   UNL     1     142.313 176.302 183.854  0.00  0.00    -0.000 C 
ATOM     20  C   UNL     1     142.215 174.827 183.435  0.00  0.00    +0.064 C 
ATOM     21  C   UNL     1     143.078 174.456 182.201  0.00  0.00    +0.020 C 
ATOM     22  C   UNL     1     143.275 172.914 182.047  0.00  0.00    +0.113 C 
ATOM     23  O   UNL     1     141.930 172.390 181.863  0.00  0.00    -0.458 OA
ATOM     24  C   UNL     1     141.688 171.447 180.928  0.00  0.00    +0.332 C 
ATOM     25  O   UNL     1     142.528 170.829 180.273  0.00  0.00    -0.246 OA
ATOM     26  C   UNL     1     140.235 171.219 180.769  0.00  0.00    +0.023 C 
ATOM     27  C   UNL     1     139.300 171.779 181.565  0.00  0.00    -0.052 C 
ATOM     28  C   UNL     1     137.852 171.603 181.502  0.00  0.00    -0.054 C 
ATOM     29  C   UNL     1     137.102 172.178 182.466  0.00  0.00    -0.079 C 
ATOM     30  C   UNL     1     135.618 172.082 182.675  0.00  0.00    -0.008 C 
ATOM     31  C   UNL     1     135.162 171.758 184.112  0.00  0.00    +0.061 C 
ATOM     32  C   UNL     1     135.580 170.387 184.681  0.00  0.00    +0.003 C 
ATOM     33  C   UNL     1     136.934 170.204 185.397  0.00  0.00    +0.080 C 
ATOM     34  O   UNL     1     138.006 170.252 184.450  0.00  0.00    -0.369 OA
ATOM     35  C   UNL     1     139.321 170.249 185.016  0.00  0.00    +0.065 C 
ATOM     36  C   UNL     1     139.692 168.926 185.708  0.00  0.00    +0.000 C 
ATOM     37  C   UNL     1     139.843 167.769 184.692  0.00  0.00    +0.066 C 
ATOM     38  C   UNL     1     140.790 166.663 185.240  0.00  0.00    +0.009 C 
ATOM     39  C   UNL     1     142.295 166.993 185.013  0.00  0.00    +0.063 C 
ATOM     40  C   UNL     1     143.224 166.140 185.917  0.00  0.00    -0.000 C 
ATOM     41  C   UNL     1     144.460 166.826 186.514  0.00  0.00    +0.064 C 
ATOM     42  C   UNL     1     144.189 167.834 187.659  0.00  0.00    +0.020 C 
ATOM     43  C   UNL     1     139.511 171.482 185.918  0.00  0.00    -0.008 C 
ATOM     44  C   UNL     1     138.323 171.750 186.792  0.00  0.00    -0.083 C 
ATOM     45  C   UNL     1     137.154 171.150 186.549  0.00  0.00    -0.059 C 
ATOM     46  C   UNL     1     141.295 178.656 190.299  0.00  0.00    -0.008 C 
ATOM     47  C   UNL     1     141.111 178.622 191.785  0.00  0.00    -0.083 C 
ATOM     48  C   UNL     1     141.568 177.595 192.511  0.00  0.00    -0.059 C 
ATOM     49  H   UNL     1     142.518 166.788 188.457  0.00  0.00    +0.074 HD
ATOM     50  H   UNL     1     142.453 170.365 190.954  0.00  0.00    +0.069 HD
ATOM     51  H   UNL     1     139.486 169.903 190.258  0.00  0.00    +0.062 HD
ATOM     52  H   UNL     1     141.557 171.468 192.866  0.00  0.00    +0.058 HD
ATOM     53  H   UNL     1     140.317 172.885 194.428  0.00  0.00    +0.033 HD
ATOM     54  H   UNL     1     139.388 173.653 193.188  0.00  0.00    +0.033 HD
ATOM     55  H   UNL     1     142.425 173.959 193.472  0.00  0.00    +0.060 HD
ATOM     56  H   UNL     1     141.720 174.425 191.175  0.00  0.00    +0.032 HD
ATOM     57  H   UNL     1     140.359 175.375 191.718  0.00  0.00    +0.032 HD
ATOM     58  H   UNL     1     143.185 176.217 192.469  0.00  0.00    +0.064 HD
ATOM     59  H   UNL     1     140.788 176.618 189.726  0.00  0.00    +0.060 HD
ATOM     60  H   UNL     1     143.230 177.823 188.338  0.00  0.00    +0.032 HD
ATOM     61  H   UNL     1     142.409 176.320 187.994  0.00  0.00    +0.032 HD
ATOM     62  H   UNL     1     141.390 179.169 187.538  0.00  0.00    +0.060 HD
ATOM     63  H   UNL     1     141.063 178.403 185.180  0.00  0.00    +0.035 HD
ATOM     64  H   UNL     1     142.702 175.939 185.925  0.00  0.00    +0.060 HD
ATOM     65  H   UNL     1     143.338 176.667 183.705  0.00  0.00    +0.032 HD
ATOM     66  H   UNL     1     141.641 176.907 183.239  0.00  0.00    +0.032 HD
ATOM     67  H   UNL     1     142.544 174.232 184.288  0.00  0.00    +0.060 HD
ATOM     68  H   UNL     1     144.057 174.923 182.345  0.00  0.00    +0.036 HD
ATOM     69  H   UNL     1     143.870 172.722 181.146  0.00  0.00    +0.074 HD
ATOM     70  H   UNL     1     139.979 170.534 179.970  0.00  0.00    +0.069 HD
ATOM     71  H   UNL     1     139.642 172.413 182.383  0.00  0.00    +0.062 HD
ATOM     72  H   UNL     1     137.613 172.760 183.237  0.00  0.00    +0.058 HD
ATOM     73  H   UNL     1     135.197 173.057 182.393  0.00  0.00    +0.033 HD
ATOM     74  H   UNL     1     135.168 171.342 182.010  0.00  0.00    +0.033 HD
ATOM     75  H   UNL     1     134.068 171.715 184.043  0.00  0.00    +0.060 HD
ATOM     76  H   UNL     1     135.515 169.647 183.872  0.00  0.00    +0.032 HD
ATOM     77  H   UNL     1     134.814 170.108 185.411  0.00  0.00    +0.032 HD
ATOM     78  H   UNL     1     136.911 169.189 185.804  0.00  0.00    +0.064 HD
ATOM     79  H   UNL     1     140.013 170.381 184.174  0.00  0.00    +0.060 HD
ATOM     80  H   UNL     1     138.945 168.656 186.463  0.00  0.00    +0.032 HD
ATOM     81  H   UNL     1     140.628 169.087 186.255  0.00  0.00    +0.032 HD
ATOM     82  H   UNL     1     140.249 168.140 183.742  0.00  0.00    +0.060 HD
ATOM     83  H   UNL     1     140.602 166.586 186.318  0.00  0.00    +0.035 HD
ATOM     84  H   UNL     1     142.539 166.762 183.967  0.00  0.00    +0.060 HD
ATOM     85  H   UNL     1     143.575 165.303 185.293  0.00  0.00    +0.032 HD
ATOM     86  H   UNL     1     142.646 165.656 186.708  0.00  0.00    +0.032 HD
ATOM     87  H   UNL     1     145.143 166.059 186.892  0.00  0.00    +0.060 HD
ATOM     88  H   UNL     1     143.547 168.636 187.268  0.00  0.00    +0.036 HD
ATOM     89  H   UNL     1     140.410 171.376 186.535  0.00  0.00    +0.033 HD
ATOM     90  H   UNL     1     139.645 172.371 185.290  0.00  0.00    +0.033 HD
ATOM     91  H   UNL     1     138.425 172.471 187.596  0.00  0.00    +0.057 HD
ATOM     92  H   UNL     1     136.299 171.359 187.192  0.00  0.00    +0.059 HD
ATOM     93  H   UNL     1     142.076 179.388 190.068  0.00  0.00    +0.033 HD
ATOM     94  H   UNL     1     140.368 179.006 189.831  0.00  0.00    +0.033 HD
ATOM     95  H   UNL     1     140.621 179.461 192.262  0.00  0.00    +0.057 HD
ATOM     96  H   UNL     1     141.425 177.600 193.588  0.00  0.00    +0.059 HD
ENDROOT
BRANCH  28  97
ATOM     97  C   UNL     1     137.294 170.774 180.373  0.00  0.00    -0.040 C 
ATOM     98  H   UNL     1     137.604 171.187 179.408  0.00  0.00    +0.028 HD
ATOM     99  H   UNL     1     136.200 170.750 180.346  0.00  0.00    +0.028 HD
ATOM    100  H   UNL     1     137.641 169.737 180.442  0.00  0.00    +0.028 HD
ENDBRANCH  28  97
BRANCH  21 101
ATOM    101  C   UNL     1     142.518 175.040 180.897  0.00  0.00    -0.057 C 
ATOM    102  H   UNL     1     143.169 174.815 180.049  0.00  0.00    +0.023 HD
ATOM    103  H   UNL     1     141.537 174.612 180.682  0.00  0.00    +0.023 HD
ATOM    104  H   UNL     1     142.396 176.127 180.943  0.00  0.00    +0.023 HD
ENDBRANCH  21 101
BRANCH  42 105
ATOM    105  C   UNL     1     145.483 168.576 188.036  0.00  0.00    -0.057 C 
ATOM    106  H   UNL     1     145.287 169.401 188.723  0.00  0.00    +0.023 HD
ATOM    107  H   UNL     1     146.012 168.951 187.156  0.00  0.00    +0.023 HD
ATOM    108  H   UNL     1     146.162 167.898 188.558  0.00  0.00    +0.023 HD
ENDBRANCH  42 105
BRANCH  17 109
ATOM    109  C   UNL     1     143.134 178.681 185.578  0.00  0.00    -0.058 C 
ATOM    110  H   UNL     1     143.431 178.649 184.530  0.00  0.00    +0.023 HD
ATOM    111  H   UNL     1     143.946 178.222 186.151  0.00  0.00    +0.023 HD
ATOM    112  H   UNL     1     143.061 179.725 185.883  0.00  0.00    +0.023 HD
ENDBRANCH  17 109
BRANCH  38 113
ATOM    113  C   UNL     1     140.499 165.273 184.646  0.00  0.00    -0.058 C 
ATOM    114  H   UNL     1     139.768 164.712 185.240  0.00  0.00    +0.023 HD
ATOM    115  H   UNL     1     140.105 165.361 183.621  0.00  0.00    +0.023 HD
ATOM    116  H   UNL     1     141.404 164.662 184.600  0.00  0.00    +0.023 HD
ENDBRANCH  38 113
BRANCH   7 117
ATOM    117  C   UNL     1     138.757 172.325 190.959  0.00  0.00    -0.040 C 
ATOM    118  H   UNL     1     138.340 172.969 191.739  0.00  0.00    +0.028 HD
ATOM    119  H   UNL     1     137.982 171.613 190.660  0.00  0.00    +0.028 HD
ATOM    120  H   UNL     1     138.970 172.939 190.076  0.00  0.00    +0.028 HD
ENDBRANCH   7 117
BRANCH   1 121
ATOM    121  C   UNL     1     144.109 166.120 189.713  0.00  0.00    +0.020 C 
ATOM    122  H   UNL     1     144.825 165.594 189.073  0.00  0.00    +0.036 HD
BRANCH 121 123
ATOM    123  C   UNL     1     144.917 166.652 190.912  0.00  0.00    -0.057 C 
ATOM    124  H   UNL     1     144.383 167.431 191.463  0.00  0.00    +0.023 HD
ATOM    125  H   UNL     1     145.160 165.847 191.612  0.00  0.00    +0.023 HD
ATOM    126  H   UNL     1     145.882 167.048 190.590  0.00  0.00    +0.023 HD
ENDBRANCH 121 123
BRANCH 121 127
ATOM    127  C   UNL     1     143.095 165.056 190.254  0.00  0.00    +0.064 C 
ATOM    128  H   UNL     1     143.449 164.704 191.231  0.00  0.00    +0.060 HD
BRANCH 127 129
ATOM    129  C   UNL     1     142.897 163.796 189.361  0.00  0.00    -0.017 C 
ATOM    130  H   UNL     1     142.683 162.931 189.995  0.00  0.00    +0.032 HD
BRANCH 129 131
ATOM    131  C   UNL     1     141.732 163.978 188.383  0.00  0.00    -0.060 C 
ATOM    132  H   UNL     1     141.831 164.887 187.783  0.00  0.00    +0.023 HD
ATOM    133  H   UNL     1     141.655 163.128 187.696  0.00  0.00    +0.023 HD
ATOM    134  H   UNL     1     140.782 164.062 188.922  0.00  0.00    +0.023 HD
ENDBRANCH 129 131
BRANCH 129 135
ATOM    135  C   UNL     1     144.155 163.431 188.531  0.00  0.00    -0.046 C 
ATOM    136  H   UNL     1     144.165 164.070 187.640  0.00  0.00    +0.027 HD
ATOM    137  H   UNL     1     145.066 163.670 189.092  0.00  0.00    +0.027 HD
BRANCH 135 138
ATOM    138  C   UNL     1     144.212 161.965 188.079  0.00  0.00    -0.026 C 
ATOM    139  H   UNL     1     143.413 161.768 187.359  0.00  0.00    +0.029 HD
ATOM    140  H   UNL     1     145.161 161.790 187.557  0.00  0.00    +0.029 HD
BRANCH 138 143
ATOM    141  C   UNL     1     145.266 159.107 188.323  0.00  0.00    +0.059 C 
ATOM    142  O   UNL     1     145.163 160.085 189.364  0.00  0.00    -0.373 OA
ATOM    143  C   UNL     1     144.051 160.979 189.248  0.00  0.00    +0.061 C 
ATOM    144  C   UNL     1     142.743 160.189 189.182  0.00  0.00    -0.000 C 
ATOM    145  C   UNL     1     142.772 159.135 188.076  0.00  0.00    +0.063 C 
ATOM    146  C   UNL     1     144.006 158.254 188.251  0.00  0.00    -0.000 C 
ATOM    147  H   UNL     1     145.440 159.617 187.370  0.00  0.00    +0.059 HD
ATOM    148  H   UNL     1     144.042 161.568 190.175  0.00  0.00    +0.060 HD
ATOM    149  H   UNL     1     142.587 159.681 190.145  0.00  0.00    +0.032 HD
ATOM    150  H   UNL     1     141.885 160.859 189.053  0.00  0.00    +0.032 HD
ATOM    151  H   UNL     1     142.799 159.636 187.101  0.00  0.00    +0.060 HD
ATOM    152  H   UNL     1     144.086 157.527 187.433  0.00  0.00    +0.032 HD
ATOM    153  H   UNL     1     143.891 157.667 189.174  0.00  0.00    +0.032 HD
BRANCH 141 154
ATOM    154  C   UNL     1     146.489 158.255 188.625  0.00  0.00    -0.039 C 
ATOM    155  H   UNL     1     146.361 157.228 188.270  0.00  0.00    +0.025 HD
ATOM    156  H   UNL     1     147.380 158.681 188.150  0.00  0.00    +0.025 HD
ATOM    157  H   UNL     1     146.692 158.232 189.702  0.00  0.00    +0.025 HD
ENDBRANCH 141 154
BRANCH 145 158
ATOM    158  O   UNL     1     141.558 158.385 188.170  0.00  0.00    -0.380 OA
BRANCH 158 159
ATOM    159  C   UNL     1     141.658 157.254 189.027  0.00  0.00    +0.037 C 
ATOM    160  H   UNL     1     141.738 156.362 188.401  0.00  0.00    +0.052 HD
ATOM    161  H   UNL     1     140.764 157.158 189.644  0.00  0.00    +0.052 HD
ATOM    162  H   UNL     1     142.549 157.309 189.659  0.00  0.00    +0.052 HD
ENDBRANCH 158 159
ENDBRANCH 145 158
ENDBRANCH 138 143
ENDBRANCH 135 138
ENDBRANCH 129 135
ENDBRANCH 127 129
BRANCH 127 163
ATOM    163  O   UNL     1     141.832 165.678 190.479  0.00  0.00    -0.391 OA
ATOM    164  H   UNL     1     141.937 166.634 190.348  0.00  0.00    +0.210 HD
ENDBRANCH 127 163
ENDBRANCH 121 127
ENDBRANCH   1 121
BRANCH  41 165
ATOM    165  O   UNL     1     145.143 167.499 185.444  0.00  0.00    -0.391 OA
ATOM    166  H   UNL     1     145.713 166.841 185.007  0.00  0.00    +0.210 HD
ENDBRANCH  41 165
BRANCH  39 167
ATOM    167  O   UNL     1     142.546 168.379 185.153  0.00  0.00    -0.391 OA
ATOM    168  H   UNL     1     142.880 168.523 186.064  0.00  0.00    +0.210 HD
ENDBRANCH  39 167
BRANCH  31 169
ATOM    169  O   UNL     1     135.411 172.822 185.026  0.00  0.00    -0.391 OA
ATOM    170  H   UNL     1     136.323 172.738 185.359  0.00  0.00    +0.210 HD
ENDBRANCH  31 169
BRANCH  22 171
ATOM    171  C   UNL     1     143.944 172.198 183.266  0.00  0.00    +0.020 C 
ATOM    172  H   UNL     1     144.294 172.980 183.942  0.00  0.00    +0.036 HD
BRANCH 171 173
ATOM    173  C   UNL     1     142.902 171.432 184.103  0.00  0.00    -0.057 C 
ATOM    174  H   UNL     1     143.347 170.544 184.567  0.00  0.00    +0.023 HD
ATOM    175  H   UNL     1     142.509 172.059 184.913  0.00  0.00    +0.023 HD
ATOM    176  H   UNL     1     142.045 171.124 183.496  0.00  0.00    +0.023 HD
ENDBRANCH 171 173
BRANCH 171 177
ATOM    177  C   UNL     1     145.126 171.215 182.959  0.00  0.00    +0.064 C 
ATOM    178  H   UNL     1     144.905 170.239 183.415  0.00  0.00    +0.060 HD
BRANCH 177 179
ATOM    179  O   UNL     1     145.220 170.954 181.560  0.00  0.00    -0.391 OA
ATOM    180  H   UNL     1     144.337 170.689 181.247  0.00  0.00    +0.210 HD
ENDBRANCH 177 179
BRANCH 177 181
ATOM    181  C   UNL     1     146.519 171.692 183.501  0.00  0.00    -0.017 C 
ATOM    182  H   UNL     1     147.017 170.827 183.961  0.00  0.00    +0.032 HD
BRANCH 181 183
ATOM    183  C   UNL     1     147.403 172.229 182.363  0.00  0.00    -0.060 C 
ATOM    184  H   UNL     1     148.322 171.637 182.301  0.00  0.00    +0.023 HD
ATOM    185  H   UNL     1     147.681 173.277 182.498  0.00  0.00    +0.023 HD
ATOM    186  H   UNL     1     146.892 172.188 181.399  0.00  0.00    +0.023 HD
ENDBRANCH 181 183
BRANCH 181 187
ATOM    187  C   UNL     1     146.354 172.777 184.606  0.00  0.00    -0.046 C 
ATOM    188  H   UNL     1     145.529 173.441 184.334  0.00  0.00    +0.027 HD
ATOM    189  H   UNL     1     147.271 173.378 184.625  0.00  0.00    +0.027 HD
BRANCH 187 190
ATOM    190  C   UNL     1     146.085 172.214 186.015  0.00  0.00    -0.026 C 
ATOM    191  H   UNL     1     147.021 171.800 186.401  0.00  0.00    +0.029 HD
ATOM    192  H   UNL     1     145.376 171.381 185.930  0.00  0.00    +0.029 HD
BRANCH 190 193
ATOM    193  C   UNL     1     145.583 173.182 187.109  0.00  0.00    +0.061 C 
ATOM    194  O   UNL     1     145.758 172.676 188.432  0.00  0.00    -0.373 OA
ATOM    195  C   UNL     1     144.716 171.853 188.942  0.00  0.00    +0.059 C 
ATOM    196  C   UNL     1     143.367 172.553 188.877  0.00  0.00    -0.000 C 
ATOM    197  C   UNL     1     143.057 172.979 187.438  0.00  0.00    +0.063 C 
ATOM    198  C   UNL     1     144.210 173.819 186.892  0.00  0.00    -0.000 C 
ATOM    199  H   UNL     1     146.298 174.015 187.064  0.00  0.00    +0.060 HD
ATOM    200  H   UNL     1     144.691 170.916 188.376  0.00  0.00    +0.059 HD
ATOM    201  H   UNL     1     142.581 171.892 189.257  0.00  0.00    +0.032 HD
ATOM    202  H   UNL     1     143.357 173.446 189.513  0.00  0.00    +0.032 HD
ATOM    203  H   UNL     1     142.913 172.090 186.818  0.00  0.00    +0.060 HD
ATOM    204  H   UNL     1     144.193 174.777 187.432  0.00  0.00    +0.032 HD
ATOM    205  H   UNL     1     144.047 174.074 185.838  0.00  0.00    +0.032 HD
BRANCH 195 206
ATOM    206  C   UNL     1     145.065 171.522 190.388  0.00  0.00    -0.039 C 
ATOM    207  H   UNL     1     145.856 172.176 190.758  0.00  0.00    +0.025 HD
ATOM    208  H   UNL     1     144.191 171.633 191.034  0.00  0.00    +0.025 HD
ATOM    209  H   UNL     1     145.398 170.486 190.485  0.00  0.00    +0.025 HD
ENDBRANCH 195 206
BRANCH 197 210
ATOM    210  O   UNL     1     141.872 173.777 187.334  0.00  0.00    -0.380 OA
BRANCH 210 211
ATOM    211  C   UNL     1     141.060 173.766 188.498  0.00  0.00    +0.037 C 
ATOM    212  H   UNL     1     140.262 174.504 188.404  0.00  0.00    +0.052 HD
ATOM    213  H   UNL     1     140.594 172.781 188.580  0.00  0.00    +0.052 HD
ATOM    214  H   UNL     1     141.650 173.952 189.397  0.00  0.00    +0.052 HD
ENDBRANCH 210 211
ENDBRANCH 197 210
ENDBRANCH 190 193
ENDBRANCH 187 190
ENDBRANCH 181 187
ENDBRANCH 177 181
ENDBRANCH 171 177
ENDBRANCH  22 171
BRANCH  20 215
ATOM    215  O   UNL     1     140.822 174.541 183.255  0.00  0.00    -0.391 OA
ATOM    216  H   UNL     1     140.467 174.174 184.082  0.00  0.00    +0.210 HD
ENDBRANCH  20 215
BRANCH  18 217
ATOM    217  O   UNL     1     140.694 175.790 185.623  0.00  0.00    -0.391 OA
ATOM    218  H   UNL     1     140.868 174.902 186.003  0.00  0.00    +0.210 HD
ENDBRANCH  18 217
BRANCH  10 219
ATOM    219  O   UNL     1     141.172 175.274 194.392  0.00  0.00    -0.391 OA
ATOM    220  H   UNL     1     140.962 176.144 194.009  0.00  0.00    +0.210 HD
ENDBRANCH  10 219
BRANCH  37 221
ATOM    221  O   UNL     1     138.534 167.211 184.492  0.00  0.00    -0.379 OA
BRANCH 221 222
ATOM    222  C   UNL     1     137.878 166.913 185.718  0.00  0.00    +0.037 C 
ATOM    223  H   UNL     1     137.179 166.081 185.586  0.00  0.00    +0.052 HD
ATOM    224  H   UNL     1     137.343 167.786 186.102  0.00  0.00    +0.052 HD
ATOM    225  H   UNL     1     138.632 166.619 186.456  0.00  0.00    +0.052 HD
ENDBRANCH 221 222
ENDBRANCH  37 221
BRANCH  16 226
ATOM    226  O   UNL     1     139.994 177.674 187.516  0.00  0.00    -0.379 OA
BRANCH 226 227
ATOM    227  C   UNL     1     139.003 178.610 187.116  0.00  0.00    +0.037 C 
ATOM    228  H   UNL     1     138.322 178.757 187.958  0.00  0.00    +0.052 HD
ATOM    229  H   UNL     1     139.452 179.578 186.868  0.00  0.00    +0.052 HD
ATOM    230  H   UNL     1     138.417 178.234 186.273  0.00  0.00    +0.052 HD
ENDBRANCH 226 227
ENDBRANCH  16 226
TORSDOF 40
ENDMDL
MODEL 10
REMARK VINA RESULT:      -5.6      2.977      8.109
REMARK  Name = Swinholide A_conf2
REMARK  40 active torsions:
REMARK  status: ('A' for Active; 'I' for Inactive)
REMARK    1  A    between atoms: C_1  and  C_2
REMARK    2  A    between atoms: C_4  and  C_10
REMARK    3  A    between atoms: C_6  and  O_8
REMARK    4  A    between atoms: O_8  and  C_9
REMARK    5  A    between atoms: C_10  and  C_11
REMARK    6  A    between atoms: C_11  and  C_12
REMARK    7  A    between atoms: C_12  and  C_13
REMARK    8  A    between atoms: C_12  and  C_98
REMARK    9  A    between atoms: C_13  and  O_14
REMARK   10  A    between atoms: C_13  and  C_15
REMARK   11  A    between atoms: C_15  and  C_16
REMARK   12  A    between atoms: C_15  and  C_97
REMARK   13  A    between atoms: C_22  and  C_96
REMARK   14  A    between atoms: C_25  and  O_95
REMARK   15  A    between atoms: C_31  and  O_90
REMARK   16  A    between atoms: C_32  and  C_89
REMARK   17  A    between atoms: C_33  and  O_88
REMARK   18  A    between atoms: C_35  and  O_87
REMARK   19  A    between atoms: C_36  and  C_86
REMARK   20  A    between atoms: C_37  and  C_69
REMARK   21  A    between atoms: C_43  and  C_68
REMARK   22  A    between atoms: C_46  and  O_67
REMARK   23  A    between atoms: C_52  and  O_62
REMARK   24  A    between atoms: C_53  and  C_61
REMARK   25  A    between atoms: C_54  and  O_60
REMARK   26  A    between atoms: C_56  and  O_59
REMARK   27  A    between atoms: C_57  and  C_58
REMARK   28  A    between atoms: O_62  and  C_63
REMARK   29  A    between atoms: C_69  and  C_70
REMARK   30  A    between atoms: C_69  and  C_85
REMARK   31  A    between atoms: C_70  and  O_71
REMARK   32  A    between atoms: C_70  and  C_72
REMARK   33  A    between atoms: C_72  and  C_73
REMARK   34  A    between atoms: C_72  and  C_84
REMARK   35  A    between atoms: C_73  and  C_74
REMARK   36  A    between atoms: C_74  and  C_75
REMARK   37  A    between atoms: C_77  and  C_83
REMARK   38  A    between atoms: C_79  and  O_81
REMARK   39  A    between atoms: O_81  and  C_82
REMARK   40  A    between atoms: O_90  and  C_91
REMARK                            x       y       z     vdW  Elec       q    Type
REMARK                         _______ _______ _______ _____ _____    ______ ____
ROOT
ATOM      1  C   UNL     1     141.265 174.833 192.834  0.00  0.00    +0.113 C 
ATOM      2  O   UNL     1     141.831 176.042 192.263  0.00  0.00    -0.458 OA
ATOM      3  C   UNL     1     141.014 176.756 191.452  0.00  0.00    +0.332 C 
ATOM      4  O   UNL     1     139.852 176.512 191.181  0.00  0.00    -0.246 OA
ATOM      5  C   UNL     1     141.781 177.891 190.892  0.00  0.00    +0.023 C 
ATOM      6  C   UNL     1     141.147 178.796 190.130  0.00  0.00    -0.052 C 
ATOM      7  C   UNL     1     141.764 179.920 189.434  0.00  0.00    -0.054 C 
ATOM      8  C   UNL     1     142.842 180.568 189.917  0.00  0.00    -0.079 C 
ATOM      9  C   UNL     1     143.504 181.778 189.307  0.00  0.00    -0.008 C 
ATOM     10  C   UNL     1     144.939 181.528 188.800  0.00  0.00    +0.061 C 
ATOM     11  C   UNL     1     144.971 180.652 187.538  0.00  0.00    +0.003 C 
ATOM     12  C   UNL     1     146.355 180.557 186.861  0.00  0.00    +0.080 C 
ATOM     13  O   UNL     1     146.477 179.316 186.130  0.00  0.00    -0.369 OA
ATOM     14  C   UNL     1     145.815 179.321 184.851  0.00  0.00    +0.065 C 
ATOM     15  C   UNL     1     145.926 177.892 184.289  0.00  0.00    +0.000 C 
ATOM     16  C   UNL     1     145.377 177.711 182.856  0.00  0.00    +0.066 C 
ATOM     17  C   UNL     1     145.255 176.211 182.421  0.00  0.00    +0.009 C 
ATOM     18  C   UNL     1     144.377 175.350 183.363  0.00  0.00    +0.063 C 
ATOM     19  C   UNL     1     144.196 173.890 182.877  0.00  0.00    -0.000 C 
ATOM     20  C   UNL     1     143.173 173.165 183.765  0.00  0.00    +0.064 C 
ATOM     21  C   UNL     1     143.306 171.620 183.761  0.00  0.00    +0.020 C 
ATOM     22  C   UNL     1     142.545 170.949 184.949  0.00  0.00    +0.113 C 
ATOM     23  O   UNL     1     141.150 171.308 184.740  0.00  0.00    -0.458 OA
ATOM     24  C   UNL     1     140.178 170.385 184.900  0.00  0.00    +0.332 C 
ATOM     25  O   UNL     1     140.308 169.255 185.371  0.00  0.00    -0.246 OA
ATOM     26  C   UNL     1     138.874 170.904 184.434  0.00  0.00    +0.023 C 
ATOM     27  C   UNL     1     138.674 172.180 184.042  0.00  0.00    -0.052 C 
ATOM     28  C   UNL     1     137.429 172.789 183.585  0.00  0.00    -0.054 C 
ATOM     29  C   UNL     1     137.427 174.117 183.338  0.00  0.00    -0.079 C 
ATOM     30  C   UNL     1     136.271 174.990 182.944  0.00  0.00    -0.008 C 
ATOM     31  C   UNL     1     136.117 176.301 183.743  0.00  0.00    +0.061 C 
ATOM     32  C   UNL     1     135.818 176.163 185.250  0.00  0.00    +0.003 C 
ATOM     33  C   UNL     1     136.961 176.031 186.276  0.00  0.00    +0.080 C 
ATOM     34  O   UNL     1     137.571 174.741 186.177  0.00  0.00    -0.369 OA
ATOM     35  C   UNL     1     138.746 174.557 186.973  0.00  0.00    +0.065 C 
ATOM     36  C   UNL     1     138.471 174.558 188.487  0.00  0.00    +0.000 C 
ATOM     37  C   UNL     1     137.662 173.313 188.925  0.00  0.00    +0.066 C 
ATOM     38  C   UNL     1     137.920 172.976 190.421  0.00  0.00    +0.009 C 
ATOM     39  C   UNL     1     139.220 172.145 190.635  0.00  0.00    +0.063 C 
ATOM     40  C   UNL     1     139.702 172.182 192.109  0.00  0.00    -0.000 C 
ATOM     41  C   UNL     1     141.214 172.263 192.360  0.00  0.00    +0.064 C 
ATOM     42  C   UNL     1     141.880 173.628 192.056  0.00  0.00    +0.020 C 
ATOM     43  C   UNL     1     139.833 175.562 186.552  0.00  0.00    -0.008 C 
ATOM     44  C   UNL     1     139.292 176.942 186.327  0.00  0.00    -0.083 C 
ATOM     45  C   UNL     1     137.976 177.143 186.214  0.00  0.00    -0.059 C 
ATOM     46  C   UNL     1     146.457 180.363 183.923  0.00  0.00    -0.008 C 
ATOM     47  C   UNL     1     146.691 181.663 184.629  0.00  0.00    -0.083 C 
ATOM     48  C   UNL     1     146.660 181.735 185.964  0.00  0.00    -0.059 C 
ATOM     49  H   UNL     1     140.198 174.802 192.619  0.00  0.00    +0.074 HD
ATOM     50  H   UNL     1     142.840 177.922 191.097  0.00  0.00    +0.069 HD
ATOM     51  H   UNL     1     140.079 178.677 189.952  0.00  0.00    +0.062 HD
ATOM     52  H   UNL     1     143.276 180.253 190.865  0.00  0.00    +0.058 HD
ATOM     53  H   UNL     1     143.529 182.556 190.082  0.00  0.00    +0.033 HD
ATOM     54  H   UNL     1     142.909 182.219 188.502  0.00  0.00    +0.033 HD
ATOM     55  H   UNL     1     145.526 181.046 189.586  0.00  0.00    +0.060 HD
ATOM     56  H   UNL     1     144.626 179.643 187.794  0.00  0.00    +0.032 HD
ATOM     57  H   UNL     1     144.248 181.035 186.808  0.00  0.00    +0.032 HD
ATOM     58  H   UNL     1     147.130 180.505 187.632  0.00  0.00    +0.064 HD
ATOM     59  H   UNL     1     144.754 179.551 185.009  0.00  0.00    +0.060 HD
ATOM     60  H   UNL     1     146.970 177.559 184.323  0.00  0.00    +0.032 HD
ATOM     61  H   UNL     1     145.387 177.245 184.992  0.00  0.00    +0.032 HD
ATOM     62  H   UNL     1     146.084 178.200 182.169  0.00  0.00    +0.060 HD
ATOM     63  H   UNL     1     144.766 176.203 181.442  0.00  0.00    +0.035 HD
ATOM     64  H   UNL     1     144.847 175.292 184.353  0.00  0.00    +0.060 HD
ATOM     65  H   UNL     1     145.162 173.369 182.916  0.00  0.00    +0.032 HD
ATOM     66  H   UNL     1     143.850 173.891 181.839  0.00  0.00    +0.032 HD
ATOM     67  H   UNL     1     143.320 173.531 184.781  0.00  0.00    +0.060 HD
ATOM     68  H   UNL     1     144.372 171.393 183.853  0.00  0.00    +0.036 HD
ATOM     69  H   UNL     1     142.660 169.861 184.872  0.00  0.00    +0.074 HD
ATOM     70  H   UNL     1     138.073 170.175 184.459  0.00  0.00    +0.069 HD
ATOM     71  H   UNL     1     139.519 172.867 184.099  0.00  0.00    +0.062 HD
ATOM     72  H   UNL     1     138.361 174.668 183.477  0.00  0.00    +0.058 HD
ATOM     73  H   UNL     1     136.420 175.250 181.887  0.00  0.00    +0.033 HD
ATOM     74  H   UNL     1     135.324 174.452 183.005  0.00  0.00    +0.033 HD
ATOM     75  H   UNL     1     135.221 176.770 183.318  0.00  0.00    +0.060 HD
ATOM     76  H   UNL     1     135.132 175.317 185.387  0.00  0.00    +0.032 HD
ATOM     77  H   UNL     1     135.258 177.059 185.537  0.00  0.00    +0.032 HD
ATOM     78  H   UNL     1     136.477 176.082 187.257  0.00  0.00    +0.064 HD
ATOM     79  H   UNL     1     139.136 173.564 186.714  0.00  0.00    +0.060 HD
ATOM     80  H   UNL     1     137.937 175.467 188.787  0.00  0.00    +0.032 HD
ATOM     81  H   UNL     1     139.438 174.593 189.002  0.00  0.00    +0.032 HD
ATOM     82  H   UNL     1     137.935 172.442 188.316  0.00  0.00    +0.060 HD
ATOM     83  H   UNL     1     138.018 173.931 190.953  0.00  0.00    +0.035 HD
ATOM     84  H   UNL     1     139.000 171.100 190.379  0.00  0.00    +0.060 HD
ATOM     85  H   UNL     1     139.336 171.254 192.576  0.00  0.00    +0.032 HD
ATOM     86  H   UNL     1     139.189 172.974 192.658  0.00  0.00    +0.032 HD
ATOM     87  H   UNL     1     141.414 172.014 193.407  0.00  0.00    +0.060 HD
ATOM     88  H   UNL     1     141.729 173.857 190.992  0.00  0.00    +0.036 HD
ATOM     89  H   UNL     1     140.639 175.594 187.294  0.00  0.00    +0.033 HD
ATOM     90  H   UNL     1     140.274 175.239 185.600  0.00  0.00    +0.033 HD
ATOM     91  H   UNL     1     139.995 177.761 186.217  0.00  0.00    +0.057 HD
ATOM     92  H   UNL     1     137.600 178.152 186.047  0.00  0.00    +0.059 HD
ATOM     93  H   UNL     1     147.419 180.002 183.544  0.00  0.00    +0.033 HD
ATOM     94  H   UNL     1     145.808 180.537 183.058  0.00  0.00    +0.033 HD
ATOM     95  H   UNL     1     146.912 182.539 184.033  0.00  0.00    +0.057 HD
ATOM     96  H   UNL     1     146.839 182.691 186.449  0.00  0.00    +0.059 HD
ENDROOT
BRANCH  28  97
ATOM     97  C   UNL     1     136.222 171.897 183.438  0.00  0.00    -0.040 C 
ATOM     98  H   UNL     1     136.204 171.148 184.236  0.00  0.00    +0.028 HD
ATOM     99  H   UNL     1     136.206 171.331 182.502  0.00  0.00    +0.028 HD
ATOM    100  H   UNL     1     135.297 172.483 183.481  0.00  0.00    +0.028 HD
ENDBRANCH  28  97
BRANCH  21 101
ATOM    101  C   UNL     1     142.851 170.996 182.434  0.00  0.00    -0.057 C 
ATOM    102  H   UNL     1     143.699 170.593 181.875  0.00  0.00    +0.023 HD
ATOM    103  H   UNL     1     142.159 170.172 182.622  0.00  0.00    +0.023 HD
ATOM    104  H   UNL     1     142.337 171.713 181.788  0.00  0.00    +0.023 HD
ENDBRANCH  21 101
BRANCH  42 105
ATOM    105  C   UNL     1     143.410 173.517 192.175  0.00  0.00    -0.057 C 
ATOM    106  H   UNL     1     143.812 172.770 191.490  0.00  0.00    +0.023 HD
ATOM    107  H   UNL     1     143.725 173.285 193.196  0.00  0.00    +0.023 HD
ATOM    108  H   UNL     1     143.874 174.467 191.900  0.00  0.00    +0.023 HD
ENDBRANCH  42 105
BRANCH  17 109
ATOM    109  C   UNL     1     146.644 175.591 182.230  0.00  0.00    -0.058 C 
ATOM    110  H   UNL     1     147.279 175.760 183.100  0.00  0.00    +0.023 HD
ATOM    111  H   UNL     1     147.152 176.049 181.375  0.00  0.00    +0.023 HD
ATOM    112  H   UNL     1     146.587 174.519 182.048  0.00  0.00    +0.023 HD
ENDBRANCH  17 109
BRANCH  38 113
ATOM    113  C   UNL     1     136.747 172.228 191.081  0.00  0.00    -0.058 C 
ATOM    114  H   UNL     1     135.775 172.559 190.697  0.00  0.00    +0.023 HD
ATOM    115  H   UNL     1     136.829 171.144 190.906  0.00  0.00    +0.023 HD
ATOM    116  H   UNL     1     136.731 172.388 192.162  0.00  0.00    +0.023 HD
ENDBRANCH  38 113
BRANCH   7 117
ATOM    117  C   UNL     1     141.069 180.315 188.156  0.00  0.00    -0.040 C 
ATOM    118  H   UNL     1     141.803 180.610 187.401  0.00  0.00    +0.028 HD
ATOM    119  H   UNL     1     140.391 181.158 188.316  0.00  0.00    +0.028 HD
ATOM    120  H   UNL     1     140.459 179.499 187.751  0.00  0.00    +0.028 HD
ENDBRANCH   7 117
BRANCH   1 121
ATOM    121  C   UNL     1     141.396 174.855 194.385  0.00  0.00    +0.020 C 
ATOM    122  H   UNL     1     141.809 173.897 194.717  0.00  0.00    +0.036 HD
BRANCH 121 123
ATOM    123  C   UNL     1     142.352 175.941 194.913  0.00  0.00    -0.057 C 
ATOM    124  H   UNL     1     143.146 175.529 195.542  0.00  0.00    +0.023 HD
ATOM    125  H   UNL     1     142.821 176.488 194.090  0.00  0.00    +0.023 HD
ATOM    126  H   UNL     1     141.809 176.698 195.484  0.00  0.00    +0.023 HD
ENDBRANCH 121 123
BRANCH 121 127
ATOM    127  C   UNL     1     140.016 175.042 195.104  0.00  0.00    +0.064 C 
ATOM    128  H   UNL     1     139.684 174.064 195.476  0.00  0.00    +0.060 HD
BRANCH 127 129
ATOM    129  C   UNL     1     138.866 175.609 194.221  0.00  0.00    -0.017 C 
ATOM    130  H   UNL     1     139.266 175.904 193.247  0.00  0.00    +0.032 HD
BRANCH 129 131
ATOM    131  C   UNL     1     137.766 174.566 193.996  0.00  0.00    -0.060 C 
ATOM    132  H   UNL     1     138.100 173.739 193.364  0.00  0.00    +0.023 HD
ATOM    133  H   UNL     1     137.419 174.145 194.946  0.00  0.00    +0.023 HD
ATOM    134  H   UNL     1     136.903 175.016 193.491  0.00  0.00    +0.023 HD
ENDBRANCH 129 131
BRANCH 129 135
ATOM    135  C   UNL     1     138.199 176.873 194.823  0.00  0.00    -0.046 C 
ATOM    136  H   UNL     1     137.116 176.701 194.845  0.00  0.00    +0.027 HD
ATOM    137  H   UNL     1     138.510 177.010 195.865  0.00  0.00    +0.027 HD
BRANCH 135 138
ATOM    138  C   UNL     1     138.471 178.165 194.041  0.00  0.00    -0.026 C 
ATOM    139  H   UNL     1     138.303 177.996 192.974  0.00  0.00    +0.029 HD
ATOM    140  H   UNL     1     137.754 178.932 194.360  0.00  0.00    +0.029 HD
BRANCH 138 143
ATOM    141  C   UNL     1     139.707 179.603 196.438  0.00  0.00    +0.059 C 
ATOM    142  O   UNL     1     140.337 178.640 195.586  0.00  0.00    -0.373 OA
ATOM    143  C   UNL     1     139.913 178.670 194.218  0.00  0.00    +0.061 C 
ATOM    144  C   UNL     1     140.130 180.066 193.631  0.00  0.00    -0.000 C 
ATOM    145  C   UNL     1     139.466 181.148 194.480  0.00  0.00    +0.063 C 
ATOM    146  C   UNL     1     139.940 181.018 195.925  0.00  0.00    -0.000 C 
ATOM    147  H   UNL     1     138.635 179.385 196.492  0.00  0.00    +0.059 HD
ATOM    148  H   UNL     1     140.573 177.974 193.685  0.00  0.00    +0.060 HD
ATOM    149  H   UNL     1     141.210 180.268 193.587  0.00  0.00    +0.032 HD
ATOM    150  H   UNL     1     139.773 180.115 192.595  0.00  0.00    +0.032 HD
ATOM    151  H   UNL     1     138.377 181.033 194.426  0.00  0.00    +0.060 HD
ATOM    152  H   UNL     1     139.431 181.745 196.570  0.00  0.00    +0.032 HD
ATOM    153  H   UNL     1     141.011 181.267 195.967  0.00  0.00    +0.032 HD
BRANCH 141 154
ATOM    154  C   UNL     1     140.291 179.422 197.831  0.00  0.00    -0.039 C 
ATOM    155  H   UNL     1     139.551 179.015 198.527  0.00  0.00    +0.025 HD
ATOM    156  H   UNL     1     141.151 178.743 197.801  0.00  0.00    +0.025 HD
ATOM    157  H   UNL     1     140.660 180.375 198.226  0.00  0.00    +0.025 HD
ENDBRANCH 141 154
BRANCH 145 158
ATOM    158  O   UNL     1     139.819 182.413 193.910  0.00  0.00    -0.380 OA
BRANCH 158 159
ATOM    159  C   UNL     1     141.207 182.706 194.004  0.00  0.00    +0.037 C 
ATOM    160  H   UNL     1     141.332 183.523 194.718  0.00  0.00    +0.052 HD
ATOM    161  H   UNL     1     141.597 183.035 193.039  0.00  0.00    +0.052 HD
ATOM    162  H   UNL     1     141.775 181.845 194.367  0.00  0.00    +0.052 HD
ENDBRANCH 158 159
ENDBRANCH 145 158
ENDBRANCH 138 143
ENDBRANCH 135 138
ENDBRANCH 129 135
ENDBRANCH 127 129
BRANCH 127 163
ATOM    163  O   UNL     1     140.188 175.875 196.248  0.00  0.00    -0.391 OA
ATOM    164  H   UNL     1     139.333 175.946 196.703  0.00  0.00    +0.210 HD
ENDBRANCH 127 163
ENDBRANCH 121 127
ENDBRANCH   1 121
BRANCH  41 165
ATOM    165  O   UNL     1     141.842 171.244 191.565  0.00  0.00    -0.391 OA
ATOM    166  H   UNL     1     142.532 171.679 191.032  0.00  0.00    +0.210 HD
ENDBRANCH  41 165
BRANCH  39 167
ATOM    167  O   UNL     1     140.238 172.539 189.734  0.00  0.00    -0.391 OA
ATOM    168  H   UNL     1     139.795 172.869 188.923  0.00  0.00    +0.210 HD
ENDBRANCH  39 167
BRANCH  31 169
ATOM    169  O   UNL     1     137.157 177.237 183.481  0.00  0.00    -0.391 OA
ATOM    170  H   UNL     1     137.528 177.050 182.599  0.00  0.00    +0.210 HD
ENDBRANCH  31 169
BRANCH  22 171
ATOM    171  C   UNL     1     142.987 171.412 186.375  0.00  0.00    +0.020 C 
ATOM    172  H   UNL     1     143.902 171.994 186.253  0.00  0.00    +0.036 HD
BRANCH 171 173
ATOM    173  C   UNL     1     141.988 172.424 186.968  0.00  0.00    -0.057 C 
ATOM    174  H   UNL     1     141.530 172.034 187.884  0.00  0.00    +0.023 HD
ATOM    175  H   UNL     1     142.488 173.365 187.230  0.00  0.00    +0.023 HD
ATOM    176  H   UNL     1     141.196 172.674 186.254  0.00  0.00    +0.023 HD
ENDBRANCH 171 173
BRANCH 171 177
ATOM    177  C   UNL     1     143.227 170.295 187.450  0.00  0.00    +0.064 C 
ATOM    178  H   UNL     1     142.587 170.496 188.321  0.00  0.00    +0.060 HD
BRANCH 177 179
ATOM    179  O   UNL     1     142.799 169.023 186.965  0.00  0.00    -0.391 OA
ATOM    180  H   UNL     1     141.848 169.087 186.765  0.00  0.00    +0.210 HD
ENDBRANCH 177 179
BRANCH 177 181
ATOM    181  C   UNL     1     144.708 170.194 187.955  0.00  0.00    -0.017 C 
ATOM    182  H   UNL     1     144.794 169.287 188.570  0.00  0.00    +0.032 HD
BRANCH 181 183
ATOM    183  C   UNL     1     145.692 170.093 186.777  0.00  0.00    -0.060 C 
ATOM    184  H   UNL     1     146.016 171.097 186.483  0.00  0.00    +0.023 HD
ATOM    185  H   UNL     1     145.259 169.604 185.902  0.00  0.00    +0.023 HD
ATOM    186  H   UNL     1     146.571 169.499 187.035  0.00  0.00    +0.023 HD
ENDBRANCH 181 183
BRANCH 181 187
ATOM    187  C   UNL     1     145.081 171.407 188.859  0.00  0.00    -0.046 C 
ATOM    188  H   UNL     1     144.434 171.408 189.740  0.00  0.00    +0.027 HD
ATOM    189  H   UNL     1     144.873 172.324 188.293  0.00  0.00    +0.027 HD
BRANCH 187 190
ATOM    190  C   UNL     1     146.549 171.421 189.330  0.00  0.00    -0.026 C 
ATOM    191  H   UNL     1     146.912 172.452 189.283  0.00  0.00    +0.029 HD
ATOM    192  H   UNL     1     147.149 170.837 188.622  0.00  0.00    +0.029 HD
BRANCH 190 193
ATOM    193  C   UNL     1     146.864 170.940 190.763  0.00  0.00    +0.061 C 
ATOM    194  O   UNL     1     146.472 171.874 191.770  0.00  0.00    -0.373 OA
ATOM    195  C   UNL     1     147.415 172.887 192.100  0.00  0.00    +0.059 C 
ATOM    196  C   UNL     1     148.757 172.293 192.501  0.00  0.00    -0.000 C 
ATOM    197  C   UNL     1     149.300 171.401 191.379  0.00  0.00    +0.063 C 
ATOM    198  C   UNL     1     148.255 170.353 191.005  0.00  0.00    -0.000 C 
ATOM    199  H   UNL     1     146.167 170.105 190.915  0.00  0.00    +0.060 HD
ATOM    200  H   UNL     1     147.532 173.559 191.244  0.00  0.00    +0.059 HD
ATOM    201  H   UNL     1     149.470 173.092 192.731  0.00  0.00    +0.032 HD
ATOM    202  H   UNL     1     148.663 171.689 193.411  0.00  0.00    +0.032 HD
ATOM    203  H   UNL     1     149.544 172.016 190.510  0.00  0.00    +0.060 HD
ATOM    204  H   UNL     1     148.182 169.654 191.851  0.00  0.00    +0.032 HD
ATOM    205  H   UNL     1     148.590 169.748 190.154  0.00  0.00    +0.032 HD
BRANCH 195 206
ATOM    206  C   UNL     1     146.832 173.691 193.255  0.00  0.00    -0.039 C 
ATOM    207  H   UNL     1     146.968 173.167 194.203  0.00  0.00    +0.025 HD
ATOM    208  H   UNL     1     147.310 174.670 193.328  0.00  0.00    +0.025 HD
ATOM    209  H   UNL     1     145.765 173.873 193.109  0.00  0.00    +0.025 HD
ENDBRANCH 195 206
BRANCH 197 210
ATOM    210  O   UNL     1     150.487 170.691 191.756  0.00  0.00    -0.380 OA
BRANCH 210 211
ATOM    211  C   UNL     1     150.263 169.341 192.130  0.00  0.00    +0.037 C 
ATOM    212  H   UNL     1     149.404 168.941 191.590  0.00  0.00    +0.052 HD
ATOM    213  H   UNL     1     151.140 168.755 191.841  0.00  0.00    +0.052 HD
ATOM    214  H   UNL     1     150.116 169.245 193.208  0.00  0.00    +0.052 HD
ENDBRANCH 210 211
ENDBRANCH 197 210
ENDBRANCH 190 193
ENDBRANCH 187 190
ENDBRANCH 181 187
ENDBRANCH 177 181
ENDBRANCH 171 177
ENDBRANCH  22 171
BRANCH  20 215
ATOM    215  O   UNL     1     141.876 173.620 183.354  0.00  0.00    -0.391 OA
ATOM    216  H   UNL     1     141.635 173.173 182.525  0.00  0.00    +0.210 HD
ENDBRANCH  20 215
BRANCH  18 217
ATOM    217  O   UNL     1     143.116 175.989 183.538  0.00  0.00    -0.391 OA
ATOM    218  H   UNL     1     143.146 176.584 184.318  0.00  0.00    +0.210 HD
ENDBRANCH  18 217
BRANCH  10 219
ATOM    219  O   UNL     1     145.539 182.800 188.552  0.00  0.00    -0.391 OA
ATOM    220  H   UNL     1     146.122 182.708 187.777  0.00  0.00    +0.210 HD
ENDBRANCH  10 219
BRANCH  37 221
ATOM    221  O   UNL     1     136.272 173.632 188.747  0.00  0.00    -0.379 OA
BRANCH 221 222
ATOM    222  C   UNL     1     135.610 172.713 187.889  0.00  0.00    +0.037 C 
ATOM    223  H   UNL     1     134.552 172.628 188.161  0.00  0.00    +0.052 HD
ATOM    224  H   UNL     1     136.080 171.726 187.929  0.00  0.00    +0.052 HD
ATOM    225  H   UNL     1     135.675 173.083 186.861  0.00  0.00    +0.052 HD
ENDBRANCH 221 222
ENDBRANCH  37 221
BRANCH  16 226
ATOM    226  O   UNL     1     144.143 178.435 182.770  0.00  0.00    -0.379 OA
BRANCH 226 227
ATOM    227  C   UNL     1     143.787 178.854 181.461  0.00  0.00    +0.037 C 
ATOM    228  H   UNL     1     143.239 178.036 180.986  0.00  0.00    +0.052 HD
ATOM    229  H   UNL     1     143.132 179.731 181.492  0.00  0.00    +0.052 HD
ATOM    230  H   UNL     1     144.673 179.060 180.854  0.00  0.00    +0.052 HD
ENDBRANCH 226 227
ENDBRANCH  16 226
TORSDOF 40
ENDMDL
