MODEL 1
REMARK VINA RESULT:      -5.7      0.000      0.000
REMARK  Name = Swinholide A_conf3
REMARK  40 active torsions:
REMARK  status: ('A' for Active; 'I' for Inactive)
REMARK    1  A    between atoms: C_1  and  C_2
REMARK    2  A    between atoms: C_4  and  C_10
REMARK    3  A    between atoms: C_6  and  O_8
REMARK    4  A    between atoms: O_8  and  C_9
REMARK    5  A    between atoms: C_10  and  C_11
REMARK    6  A    between atoms: C_11  and  C_12
REMARK    7  A    between atoms: C_12  and  C_13
REMARK    8  A    between atoms: C_12  and  C_98
REMARK    9  A    between atoms: C_13  and  O_14
REMARK   10  A    between atoms: C_13  and  C_15
REMARK   11  A    between atoms: C_15  and  C_16
REMARK   12  A    between atoms: C_15  and  C_97
REMARK   13  A    between atoms: C_22  and  C_96
REMARK   14  A    between atoms: C_25  and  O_95
REMARK   15  A    between atoms: C_31  and  O_90
REMARK   16  A    between atoms: C_32  and  C_89
REMARK   17  A    between atoms: C_33  and  O_88
REMARK   18  A    between atoms: C_35  and  O_87
REMARK   19  A    between atoms: C_36  and  C_86
REMARK   20  A    between atoms: C_37  and  C_69
REMARK   21  A    between atoms: C_43  and  C_68
REMARK   22  A    between atoms: C_46  and  O_67
REMARK   23  A    between atoms: C_52  and  O_62
REMARK   24  A    between atoms: C_53  and  C_61
REMARK   25  A    between atoms: C_54  and  O_60
REMARK   26  A    between atoms: C_56  and  O_59
REMARK   27  A    between atoms: C_57  and  C_58
REMARK   28  A    between atoms: O_62  and  C_63
REMARK   29  A    between atoms: C_69  and  C_70
REMARK   30  A    between atoms: C_69  and  C_85
REMARK   31  A    between atoms: C_70  and  O_71
REMARK   32  A    between atoms: C_70  and  C_72
REMARK   33  A    between atoms: C_72  and  C_73
REMARK   34  A    between atoms: C_72  and  C_84
REMARK   35  A    between atoms: C_73  and  C_74
REMARK   36  A    between atoms: C_74  and  C_75
REMARK   37  A    between atoms: C_77  and  C_83
REMARK   38  A    between atoms: C_79  and  O_81
REMARK   39  A    between atoms: O_81  and  C_82
REMARK   40  A    between atoms: O_90  and  C_91
REMARK                            x       y       z     vdW  Elec       q    Type
REMARK                         _______ _______ _______ _____ _____    ______ ____
ROOT
ATOM      1  C   UNL     1     150.784 159.728 186.061  0.00  0.00    +0.113 C 
ATOM      2  O   UNL     1     150.433 161.030 185.523  0.00  0.00    -0.458 OA
ATOM      3  C   UNL     1     149.809 161.857 186.403  0.00  0.00    +0.332 C 
ATOM      4  O   UNL     1     149.629 161.636 187.593  0.00  0.00    -0.246 OA
ATOM      5  C   UNL     1     149.305 163.096 185.804  0.00  0.00    +0.023 C 
ATOM      6  C   UNL     1     149.758 163.695 184.693  0.00  0.00    -0.052 C 
ATOM      7  C   UNL     1     149.253 164.998 184.270  0.00  0.00    -0.054 C 
ATOM      8  C   UNL     1     149.097 165.986 185.174  0.00  0.00    -0.079 C 
ATOM      9  C   UNL     1     148.522 167.357 184.971  0.00  0.00    -0.008 C 
ATOM     10  C   UNL     1     146.983 167.466 184.900  0.00  0.00    +0.061 C 
ATOM     11  C   UNL     1     146.153 166.333 185.517  0.00  0.00    +0.003 C 
ATOM     12  C   UNL     1     145.920 166.304 187.037  0.00  0.00    +0.080 C 
ATOM     13  O   UNL     1     145.136 165.110 187.239  0.00  0.00    -0.369 OA
ATOM     14  C   UNL     1     145.064 164.622 188.590  0.00  0.00    +0.065 C 
ATOM     15  C   UNL     1     144.248 165.596 189.457  0.00  0.00    +0.000 C 
ATOM     16  C   UNL     1     143.844 165.070 190.848  0.00  0.00    +0.066 C 
ATOM     17  C   UNL     1     142.868 166.071 191.534  0.00  0.00    +0.009 C 
ATOM     18  C   UNL     1     143.548 167.299 192.206  0.00  0.00    +0.063 C 
ATOM     19  C   UNL     1     142.741 168.610 192.049  0.00  0.00    -0.000 C 
ATOM     20  C   UNL     1     142.627 169.060 190.574  0.00  0.00    +0.064 C 
ATOM     21  C   UNL     1     142.878 170.580 190.373  0.00  0.00    +0.020 C 
ATOM     22  C   UNL     1     143.472 170.949 188.967  0.00  0.00    +0.113 C 
ATOM     23  O   UNL     1     143.364 169.856 188.036  0.00  0.00    -0.458 OA
ATOM     24  C   UNL     1     142.206 169.754 187.340  0.00  0.00    +0.332 C 
ATOM     25  O   UNL     1     141.332 170.600 187.246  0.00  0.00    -0.246 OA
ATOM     26  C   UNL     1     142.173 168.412 186.722  0.00  0.00    +0.023 C 
ATOM     27  C   UNL     1     141.101 168.023 186.017  0.00  0.00    -0.052 C 
ATOM     28  C   UNL     1     140.940 166.712 185.403  0.00  0.00    -0.054 C 
ATOM     29  C   UNL     1     141.271 165.581 186.061  0.00  0.00    -0.079 C 
ATOM     30  C   UNL     1     141.100 164.165 185.575  0.00  0.00    -0.008 C 
ATOM     31  C   UNL     1     142.354 163.644 184.848  0.00  0.00    +0.061 C 
ATOM     32  C   UNL     1     143.145 162.641 185.703  0.00  0.00    +0.003 C 
ATOM     33  C   UNL     1     144.542 162.333 185.136  0.00  0.00    +0.080 C 
ATOM     34  O   UNL     1     145.392 161.794 186.170  0.00  0.00    -0.369 OA
ATOM     35  C   UNL     1     145.277 160.371 186.368  0.00  0.00    +0.065 C 
ATOM     36  C   UNL     1     146.189 160.020 187.563  0.00  0.00    +0.000 C 
ATOM     37  C   UNL     1     146.266 158.517 187.908  0.00  0.00    +0.066 C 
ATOM     38  C   UNL     1     147.244 158.230 189.088  0.00  0.00    +0.009 C 
ATOM     39  C   UNL     1     148.734 158.598 188.842  0.00  0.00    +0.063 C 
ATOM     40  C   UNL     1     149.679 157.605 188.131  0.00  0.00    -0.000 C 
ATOM     41  C   UNL     1     149.599 157.456 186.604  0.00  0.00    +0.064 C 
ATOM     42  C   UNL     1     149.586 158.766 185.785  0.00  0.00    +0.020 C 
ATOM     43  C   UNL     1     145.713 159.653 185.082  0.00  0.00    -0.008 C 
ATOM     44  C   UNL     1     145.047 160.223 183.873  0.00  0.00    -0.083 C 
ATOM     45  C   UNL     1     144.518 161.451 183.910  0.00  0.00    -0.059 C 
ATOM     46  C   UNL     1     146.477 164.296 189.097  0.00  0.00    -0.008 C 
ATOM     47  C   UNL     1     147.433 165.413 188.831  0.00  0.00    -0.083 C 
ATOM     48  C   UNL     1     147.159 166.331 187.892  0.00  0.00    -0.059 C 
ATOM     49  H   UNL     1     150.863 159.821 187.150  0.00  0.00    +0.074 HD
ATOM     50  H   UNL     1     148.530 163.558 186.410  0.00  0.00    +0.069 HD
ATOM     51  H   UNL     1     150.525 163.233 184.076  0.00  0.00    +0.062 HD
ATOM     52  H   UNL     1     149.402 165.798 186.203  0.00  0.00    +0.058 HD
ATOM     53  H   UNL     1     148.951 167.808 184.066  0.00  0.00    +0.033 HD
ATOM     54  H   UNL     1     148.896 167.996 185.782  0.00  0.00    +0.033 HD
ATOM     55  H   UNL     1     146.722 167.496 183.833  0.00  0.00    +0.060 HD
ATOM     56  H   UNL     1     146.519 165.355 185.178  0.00  0.00    +0.032 HD
ATOM     57  H   UNL     1     145.148 166.396 185.070  0.00  0.00    +0.032 HD
ATOM     58  H   UNL     1     145.295 167.161 187.309  0.00  0.00    +0.064 HD
ATOM     59  H   UNL     1     144.513 163.678 188.528  0.00  0.00    +0.060 HD
ATOM     60  H   UNL     1     143.339 165.834 188.889  0.00  0.00    +0.032 HD
ATOM     61  H   UNL     1     144.783 166.541 189.552  0.00  0.00    +0.032 HD
ATOM     62  H   UNL     1     144.730 164.921 191.477  0.00  0.00    +0.060 HD
ATOM     63  H   UNL     1     142.180 166.419 190.755  0.00  0.00    +0.035 HD
ATOM     64  H   UNL     1     143.644 167.094 193.281  0.00  0.00    +0.060 HD
ATOM     65  H   UNL     1     143.272 169.377 192.626  0.00  0.00    +0.032 HD
ATOM     66  H   UNL     1     141.748 168.487 192.496  0.00  0.00    +0.032 HD
ATOM     67  H   UNL     1     143.357 168.500 189.992  0.00  0.00    +0.060 HD
ATOM     68  H   UNL     1     143.603 170.902 191.128  0.00  0.00    +0.036 HD
ATOM     69  H   UNL     1     142.911 171.795 188.547  0.00  0.00    +0.074 HD
ATOM     70  H   UNL     1     143.020 167.764 186.904  0.00  0.00    +0.069 HD
ATOM     71  H   UNL     1     140.274 168.719 185.872  0.00  0.00    +0.062 HD
ATOM     72  H   UNL     1     141.690 165.651 187.065  0.00  0.00    +0.058 HD
ATOM     73  H   UNL     1     140.865 163.536 186.444  0.00  0.00    +0.033 HD
ATOM     74  H   UNL     1     140.214 164.093 184.934  0.00  0.00    +0.033 HD
ATOM     75  H   UNL     1     143.008 164.478 184.565  0.00  0.00    +0.060 HD
ATOM     76  H   UNL     1     143.259 163.039 186.716  0.00  0.00    +0.032 HD
ATOM     77  H   UNL     1     142.575 161.707 185.803  0.00  0.00    +0.032 HD
ATOM     78  H   UNL     1     145.018 163.279 184.852  0.00  0.00    +0.064 HD
ATOM     79  H   UNL     1     144.235 160.130 186.618  0.00  0.00    +0.060 HD
ATOM     80  H   UNL     1     147.181 160.430 187.359  0.00  0.00    +0.032 HD
ATOM     81  H   UNL     1     145.818 160.575 188.436  0.00  0.00    +0.032 HD
ATOM     82  H   UNL     1     146.573 157.952 187.027  0.00  0.00    +0.060 HD
ATOM     83  H   UNL     1     146.896 158.863 189.918  0.00  0.00    +0.035 HD
ATOM     84  H   UNL     1     148.802 159.566 188.357  0.00  0.00    +0.060 HD
ATOM     85  H   UNL     1     149.565 156.615 188.591  0.00  0.00    +0.032 HD
ATOM     86  H   UNL     1     150.710 157.896 188.377  0.00  0.00    +0.032 HD
ATOM     87  H   UNL     1     150.457 156.849 186.290  0.00  0.00    +0.060 HD
ATOM     88  H   UNL     1     148.690 159.313 186.096  0.00  0.00    +0.036 HD
ATOM     89  H   UNL     1     145.491 158.584 185.140  0.00  0.00    +0.033 HD
ATOM     90  H   UNL     1     146.789 159.769 184.935  0.00  0.00    +0.033 HD
ATOM     91  H   UNL     1     145.020 159.635 182.961  0.00  0.00    +0.057 HD
ATOM     92  H   UNL     1     144.038 161.847 183.019  0.00  0.00    +0.059 HD
ATOM     93  H   UNL     1     146.854 163.409 188.574  0.00  0.00    +0.033 HD
ATOM     94  H   UNL     1     146.461 164.059 190.163  0.00  0.00    +0.033 HD
ATOM     95  H   UNL     1     148.340 165.477 189.425  0.00  0.00    +0.057 HD
ATOM     96  H   UNL     1     147.826 167.176 187.771  0.00  0.00    +0.059 HD
ENDROOT
BRANCH  28  97
ATOM     97  C   UNL     1     140.337 166.760 184.025  0.00  0.00    -0.040 C 
ATOM     98  H   UNL     1     140.108 165.772 183.619  0.00  0.00    +0.028 HD
ATOM     99  H   UNL     1     139.409 167.342 184.031  0.00  0.00    +0.028 HD
ATOM    100  H   UNL     1     141.036 167.231 183.324  0.00  0.00    +0.028 HD
ENDBRANCH  28  97
BRANCH  21 101
ATOM    101  C   UNL     1     141.625 171.425 190.651  0.00  0.00    -0.057 C 
ATOM    102  H   UNL     1     141.685 172.411 190.180  0.00  0.00    +0.023 HD
ATOM    103  H   UNL     1     141.497 171.580 191.727  0.00  0.00    +0.023 HD
ATOM    104  H   UNL     1     140.724 170.922 190.283  0.00  0.00    +0.023 HD
ENDBRANCH  21 101
BRANCH  42 105
ATOM    105  C   UNL     1     149.323 158.494 184.294  0.00  0.00    -0.057 C 
ATOM    106  H   UNL     1     149.546 157.449 184.051  0.00  0.00    +0.023 HD
ATOM    107  H   UNL     1     148.276 158.672 184.025  0.00  0.00    +0.023 HD
ATOM    108  H   UNL     1     149.968 159.093 183.649  0.00  0.00    +0.023 HD
ENDBRANCH  42 105
BRANCH  17 109
ATOM    109  C   UNL     1     141.951 165.395 192.569  0.00  0.00    -0.058 C 
ATOM    110  H   UNL     1     140.951 165.836 192.562  0.00  0.00    +0.023 HD
ATOM    111  H   UNL     1     142.359 165.480 193.582  0.00  0.00    +0.023 HD
ATOM    112  H   UNL     1     141.848 164.323 192.360  0.00  0.00    +0.023 HD
ENDBRANCH  17 109
BRANCH  38 113
ATOM    113  C   UNL     1     147.105 156.797 189.626  0.00  0.00    -0.058 C 
ATOM    114  H   UNL     1     146.703 156.120 188.866  0.00  0.00    +0.023 HD
ATOM    115  H   UNL     1     148.073 156.405 189.958  0.00  0.00    +0.023 HD
ATOM    116  H   UNL     1     146.439 156.766 190.495  0.00  0.00    +0.023 HD
ENDBRANCH  38 113
BRANCH   7 117
ATOM    117  C   UNL     1     148.920 165.117 182.812  0.00  0.00    -0.040 C 
ATOM    118  H   UNL     1     149.349 166.034 182.402  0.00  0.00    +0.028 HD
ATOM    119  H   UNL     1     147.843 165.149 182.628  0.00  0.00    +0.028 HD
ATOM    120  H   UNL     1     149.318 164.266 182.248  0.00  0.00    +0.028 HD
ENDBRANCH   7 117
BRANCH   1 121
ATOM    121  C   UNL     1     152.220 159.305 185.629  0.00  0.00    +0.020 C 
ATOM    122  H   UNL     1     152.136 158.279 185.250  0.00  0.00    +0.036 HD
BRANCH 121 123
ATOM    123  C   UNL     1     152.842 160.110 184.490  0.00  0.00    -0.057 C 
ATOM    124  H   UNL     1     153.158 159.472 183.662  0.00  0.00    +0.023 HD
ATOM    125  H   UNL     1     152.139 160.859 184.113  0.00  0.00    +0.023 HD
ATOM    126  H   UNL     1     153.699 160.689 184.836  0.00  0.00    +0.023 HD
ENDBRANCH 121 123
BRANCH 121 127
ATOM    127  C   UNL     1     153.170 159.243 186.871  0.00  0.00    +0.064 C 
ATOM    128  H   UNL     1     153.109 158.219 187.262  0.00  0.00    +0.060 HD
BRANCH 127 129
ATOM    129  C   UNL     1     152.897 160.255 188.034  0.00  0.00    -0.017 C 
ATOM    130  H   UNL     1     151.831 160.239 188.272  0.00  0.00    +0.032 HD
BRANCH 129 131
ATOM    131  C   UNL     1     153.632 159.771 189.295  0.00  0.00    -0.060 C 
ATOM    132  H   UNL     1     154.142 158.818 189.117  0.00  0.00    +0.023 HD
ATOM    133  H   UNL     1     152.931 159.627 190.126  0.00  0.00    +0.023 HD
ATOM    134  H   UNL     1     154.376 160.500 189.629  0.00  0.00    +0.023 HD
ENDBRANCH 129 131
BRANCH 129 135
ATOM    135  C   UNL     1     153.319 161.709 187.713  0.00  0.00    -0.046 C 
ATOM    136  H   UNL     1     152.967 161.996 186.718  0.00  0.00    +0.027 HD
ATOM    137  H   UNL     1     154.415 161.768 187.668  0.00  0.00    +0.027 HD
BRANCH 135 138
ATOM    138  C   UNL     1     152.847 162.786 188.705  0.00  0.00    -0.026 C 
ATOM    139  H   UNL     1     152.833 162.310 189.696  0.00  0.00    +0.029 HD
ATOM    140  H   UNL     1     151.810 163.070 188.489  0.00  0.00    +0.029 HD
BRANCH 138 143
ATOM    141  C   UNL     1     155.587 164.912 190.079  0.00  0.00    +0.059 C 
ATOM    142  O   UNL     1     154.838 163.771 189.641  0.00  0.00    -0.373 OA
ATOM    143  C   UNL     1     153.730 164.042 188.782  0.00  0.00    +0.061 C 
ATOM    144  C   UNL     1     152.915 165.233 189.294  0.00  0.00    -0.000 C 
ATOM    145  C   UNL     1     153.776 166.498 189.397  0.00  0.00    +0.063 C 
ATOM    146  C   UNL     1     155.267 166.179 189.296  0.00  0.00    -0.000 C 
ATOM    147  H   UNL     1     155.341 165.064 191.137  0.00  0.00    +0.059 HD
ATOM    148  H   UNL     1     154.112 164.263 187.779  0.00  0.00    +0.060 HD
ATOM    149  H   UNL     1     152.039 165.389 188.656  0.00  0.00    +0.032 HD
ATOM    150  H   UNL     1     152.551 164.996 190.303  0.00  0.00    +0.032 HD
ATOM    151  H   UNL     1     153.589 166.988 190.363  0.00  0.00    +0.060 HD
ATOM    152  H   UNL     1     155.852 167.030 189.666  0.00  0.00    +0.032 HD
ATOM    153  H   UNL     1     155.551 166.055 188.246  0.00  0.00    +0.032 HD
BRANCH 141 154
ATOM    154  C   UNL     1     157.066 164.563 189.979  0.00  0.00    -0.039 C 
ATOM    155  H   UNL     1     157.237 163.499 190.169  0.00  0.00    +0.025 HD
ATOM    156  H   UNL     1     157.453 164.806 188.984  0.00  0.00    +0.025 HD
ATOM    157  H   UNL     1     157.654 165.144 190.698  0.00  0.00    +0.025 HD
ENDBRANCH 141 154
BRANCH 145 158
ATOM    158  O   UNL     1     153.465 167.418 188.344  0.00  0.00    -0.380 OA
BRANCH 158 159
ATOM    159  C   UNL     1     152.214 167.156 187.720  0.00  0.00    +0.037 C 
ATOM    160  H   UNL     1     152.393 166.500 186.862  0.00  0.00    +0.052 HD
ATOM    161  H   UNL     1     151.524 166.653 188.403  0.00  0.00    +0.052 HD
ATOM    162  H   UNL     1     151.770 168.088 187.358  0.00  0.00    +0.052 HD
ENDBRANCH 158 159
ENDBRANCH 145 158
ENDBRANCH 138 143
ENDBRANCH 135 138
ENDBRANCH 129 135
ENDBRANCH 127 129
BRANCH 127 163
ATOM    163  O   UNL     1     154.515 159.385 186.395  0.00  0.00    -0.391 OA
ATOM    164  H   UNL     1     154.532 159.052 185.480  0.00  0.00    +0.210 HD
ENDBRANCH 127 163
ENDBRANCH 121 127
ENDBRANCH   1 121
BRANCH  41 165
ATOM    165  O   UNL     1     148.432 156.686 186.302  0.00  0.00    -0.391 OA
ATOM    166  H   UNL     1     148.027 157.072 185.508  0.00  0.00    +0.210 HD
ENDBRANCH  41 165
BRANCH  39 167
ATOM    167  O   UNL     1     149.331 158.797 190.145  0.00  0.00    -0.391 OA
ATOM    168  H   UNL     1     150.217 159.168 189.990  0.00  0.00    +0.210 HD
ENDBRANCH  39 167
BRANCH  31 169
ATOM    169  O   UNL     1     141.940 163.014 183.631  0.00  0.00    -0.391 OA
ATOM    170  H   UNL     1     141.452 162.206 183.876  0.00  0.00    +0.210 HD
ENDBRANCH  31 169
BRANCH  22 171
ATOM    171  C   UNL     1     144.974 171.426 189.037  0.00  0.00    +0.020 C 
ATOM    172  H   UNL     1     145.518 170.829 188.293  0.00  0.00    +0.036 HD
BRANCH 171 173
ATOM    173  C   UNL     1     145.005 172.905 188.598  0.00  0.00    -0.057 C 
ATOM    174  H   UNL     1     144.421 173.540 189.272  0.00  0.00    +0.023 HD
ATOM    175  H   UNL     1     146.026 173.299 188.573  0.00  0.00    +0.023 HD
ATOM    176  H   UNL     1     144.560 173.057 187.615  0.00  0.00    +0.023 HD
ENDBRANCH 171 173
BRANCH 171 177
ATOM    177  C   UNL     1     145.673 171.196 190.418  0.00  0.00    +0.064 C 
ATOM    178  H   UNL     1     144.941 171.385 191.214  0.00  0.00    +0.060 HD
BRANCH 177 179
ATOM    179  O   UNL     1     146.053 169.823 190.502  0.00  0.00    -0.391 OA
ATOM    180  H   UNL     1     146.693 169.715 191.236  0.00  0.00    +0.210 HD
ENDBRANCH 177 179
BRANCH 177 181
ATOM    181  C   UNL     1     146.966 172.015 190.737  0.00  0.00    -0.017 C 
ATOM    182  H   UNL     1     147.155 172.692 189.893  0.00  0.00    +0.032 HD
BRANCH 181 183
ATOM    183  C   UNL     1     146.874 172.872 191.999  0.00  0.00    -0.060 C 
ATOM    184  H   UNL     1     146.582 172.260 192.856  0.00  0.00    +0.023 HD
ATOM    185  H   UNL     1     146.092 173.633 191.930  0.00  0.00    +0.023 HD
ATOM    186  H   UNL     1     147.821 173.378 192.210  0.00  0.00    +0.023 HD
ENDBRANCH 181 183
BRANCH 181 187
ATOM    187  C   UNL     1     148.182 171.041 190.799  0.00  0.00    -0.046 C 
ATOM    188  H   UNL     1     148.980 171.428 190.154  0.00  0.00    +0.027 HD
ATOM    189  H   UNL     1     147.887 170.069 190.383  0.00  0.00    +0.027 HD
BRANCH 187 190
ATOM    190  C   UNL     1     148.765 170.824 192.203  0.00  0.00    -0.026 C 
ATOM    191  H   UNL     1     149.510 171.598 192.421  0.00  0.00    +0.029 HD
ATOM    192  H   UNL     1     147.950 170.924 192.933  0.00  0.00    +0.029 HD
BRANCH 190 193
ATOM    193  C   UNL     1     149.404 169.438 192.381  0.00  0.00    +0.061 C 
ATOM    194  O   UNL     1     150.242 169.176 191.251  0.00  0.00    -0.373 OA
ATOM    195  C   UNL     1     150.919 167.916 191.299  0.00  0.00    +0.059 C 
ATOM    196  C   UNL     1     149.925 166.759 191.437  0.00  0.00    -0.000 C 
ATOM    197  C   UNL     1     148.911 166.965 192.564  0.00  0.00    +0.063 C 
ATOM    198  C   UNL     1     148.313 168.369 192.482  0.00  0.00    -0.000 C 
ATOM    199  H   UNL     1     150.010 169.457 193.294  0.00  0.00    +0.060 HD
ATOM    200  H   UNL     1     151.406 167.808 190.321  0.00  0.00    +0.059 HD
ATOM    201  H   UNL     1     150.466 165.815 191.547  0.00  0.00    +0.032 HD
ATOM    202  H   UNL     1     149.357 166.696 190.498  0.00  0.00    +0.032 HD
ATOM    203  H   UNL     1     148.095 166.238 192.466  0.00  0.00    +0.060 HD
ATOM    204  H   UNL     1     147.684 168.563 193.359  0.00  0.00    +0.032 HD
ATOM    205  H   UNL     1     147.673 168.416 191.591  0.00  0.00    +0.032 HD
BRANCH 195 206
ATOM    206  C   UNL     1     152.039 167.910 192.336  0.00  0.00    -0.039 C 
ATOM    207  H   UNL     1     152.596 166.967 192.283  0.00  0.00    +0.025 HD
ATOM    208  H   UNL     1     151.635 168.018 193.347  0.00  0.00    +0.025 HD
ATOM    209  H   UNL     1     152.772 168.706 192.179  0.00  0.00    +0.025 HD
ENDBRANCH 195 206
BRANCH 197 210
ATOM    210  O   UNL     1     149.510 166.814 193.855  0.00  0.00    -0.380 OA
BRANCH 210 211
ATOM    211  C   UNL     1     149.726 165.460 194.225  0.00  0.00    +0.037 C 
ATOM    212  H   UNL     1     149.699 164.850 193.319  0.00  0.00    +0.052 HD
ATOM    213  H   UNL     1     150.710 165.345 194.691  0.00  0.00    +0.052 HD
ATOM    214  H   UNL     1     148.946 165.103 194.903  0.00  0.00    +0.052 HD
ENDBRANCH 210 211
ENDBRANCH 197 210
ENDBRANCH 190 193
ENDBRANCH 187 190
ENDBRANCH 181 187
ENDBRANCH 177 181
ENDBRANCH 171 177
ENDBRANCH  22 171
BRANCH  20 215
ATOM    215  O   UNL     1     141.351 168.667 190.063  0.00  0.00    -0.391 OA
ATOM    216  H   UNL     1     140.771 168.424 190.803  0.00  0.00    +0.210 HD
ENDBRANCH  20 215
BRANCH  18 217
ATOM    217  O   UNL     1     144.881 167.537 191.744  0.00  0.00    -0.391 OA
ATOM    218  H   UNL     1     144.819 167.727 190.789  0.00  0.00    +0.210 HD
ENDBRANCH  18 217
BRANCH  10 219
ATOM    219  O   UNL     1     146.595 168.731 185.440  0.00  0.00    -0.391 OA
ATOM    220  H   UNL     1     145.624 168.771 185.458  0.00  0.00    +0.210 HD
ENDBRANCH  10 219
BRANCH  37 221
ATOM    221  O   UNL     1     144.937 158.136 188.310  0.00  0.00    -0.379 OA
BRANCH 221 222
ATOM    222  C   UNL     1     144.368 157.121 187.494  0.00  0.00    +0.037 C 
ATOM    223  H   UNL     1     143.517 157.552 186.959  0.00  0.00    +0.052 HD
ATOM    224  H   UNL     1     145.098 156.778 186.756  0.00  0.00    +0.052 HD
ATOM    225  H   UNL     1     144.013 156.276 188.091  0.00  0.00    +0.052 HD
ENDBRANCH 221 222
ENDBRANCH  37 221
BRANCH  16 226
ATOM    226  O   UNL     1     143.158 163.824 190.638  0.00  0.00    -0.379 OA
BRANCH 226 227
ATOM    227  C   UNL     1     142.395 163.795 189.438  0.00  0.00    +0.037 C 
ATOM    228  H   UNL     1     142.591 162.849 188.927  0.00  0.00    +0.052 HD
ATOM    229  H   UNL     1     141.325 163.854 189.660  0.00  0.00    +0.052 HD
ATOM    230  H   UNL     1     142.685 164.616 188.774  0.00  0.00    +0.052 HD
ENDBRANCH 226 227
ENDBRANCH  16 226
TORSDOF 40
ENDMDL
MODEL 2
REMARK VINA RESULT:      -5.6      5.869     13.884
REMARK  Name = Swinholide A_conf3
REMARK  40 active torsions:
REMARK  status: ('A' for Active; 'I' for Inactive)
REMARK    1  A    between atoms: C_1  and  C_2
REMARK    2  A    between atoms: C_4  and  C_10
REMARK    3  A    between atoms: C_6  and  O_8
REMARK    4  A    between atoms: O_8  and  C_9
REMARK    5  A    between atoms: C_10  and  C_11
REMARK    6  A    between atoms: C_11  and  C_12
REMARK    7  A    between atoms: C_12  and  C_13
REMARK    8  A    between atoms: C_12  and  C_98
REMARK    9  A    between atoms: C_13  and  O_14
REMARK   10  A    between atoms: C_13  and  C_15
REMARK   11  A    between atoms: C_15  and  C_16
REMARK   12  A    between atoms: C_15  and  C_97
REMARK   13  A    between atoms: C_22  and  C_96
REMARK   14  A    between atoms: C_25  and  O_95
REMARK   15  A    between atoms: C_31  and  O_90
REMARK   16  A    between atoms: C_32  and  C_89
REMARK   17  A    between atoms: C_33  and  O_88
REMARK   18  A    between atoms: C_35  and  O_87
REMARK   19  A    between atoms: C_36  and  C_86
REMARK   20  A    between atoms: C_37  and  C_69
REMARK   21  A    between atoms: C_43  and  C_68
REMARK   22  A    between atoms: C_46  and  O_67
REMARK   23  A    between atoms: C_52  and  O_62
REMARK   24  A    between atoms: C_53  and  C_61
REMARK   25  A    between atoms: C_54  and  O_60
REMARK   26  A    between atoms: C_56  and  O_59
REMARK   27  A    between atoms: C_57  and  C_58
REMARK   28  A    between atoms: O_62  and  C_63
REMARK   29  A    between atoms: C_69  and  C_70
REMARK   30  A    between atoms: C_69  and  C_85
REMARK   31  A    between atoms: C_70  and  O_71
REMARK   32  A    between atoms: C_70  and  C_72
REMARK   33  A    between atoms: C_72  and  C_73
REMARK   34  A    between atoms: C_72  and  C_84
REMARK   35  A    between atoms: C_73  and  C_74
REMARK   36  A    between atoms: C_74  and  C_75
REMARK   37  A    between atoms: C_77  and  C_83
REMARK   38  A    between atoms: C_79  and  O_81
REMARK   39  A    between atoms: O_81  and  C_82
REMARK   40  A    between atoms: O_90  and  C_91
REMARK                            x       y       z     vdW  Elec       q    Type
REMARK                         _______ _______ _______ _____ _____    ______ ____
ROOT
ATOM      1  C   UNL     1     142.486 179.058 187.779  0.00  0.00    +0.113 C 
ATOM      2  O   UNL     1     141.852 177.966 188.495  0.00  0.00    -0.458 OA
ATOM      3  C   UNL     1     142.609 176.842 188.599  0.00  0.00    +0.332 C 
ATOM      4  O   UNL     1     143.775 176.726 188.246  0.00  0.00    -0.246 OA
ATOM      5  C   UNL     1     141.897 175.693 189.167  0.00  0.00    +0.023 C 
ATOM      6  C   UNL     1     140.829 175.729 189.975  0.00  0.00    -0.052 C 
ATOM      7  C   UNL     1     140.288 174.513 190.578  0.00  0.00    -0.054 C 
ATOM      8  C   UNL     1     141.121 173.603 191.122  0.00  0.00    -0.079 C 
ATOM      9  C   UNL     1     140.788 172.265 191.712  0.00  0.00    -0.008 C 
ATOM     10  C   UNL     1     140.518 171.112 190.720  0.00  0.00    +0.061 C 
ATOM     11  C   UNL     1     141.073 171.244 189.296  0.00  0.00    +0.003 C 
ATOM     12  C   UNL     1     142.551 170.916 189.025  0.00  0.00    +0.080 C 
ATOM     13  O   UNL     1     142.704 171.174 187.614  0.00  0.00    -0.369 OA
ATOM     14  C   UNL     1     144.055 171.300 187.136  0.00  0.00    +0.065 C 
ATOM     15  C   UNL     1     144.768 169.939 187.212  0.00  0.00    +0.000 C 
ATOM     16  C   UNL     1     146.118 169.854 186.474  0.00  0.00    +0.066 C 
ATOM     17  C   UNL     1     146.631 168.383 186.468  0.00  0.00    +0.009 C 
ATOM     18  C   UNL     1     147.330 167.924 187.781  0.00  0.00    +0.063 C 
ATOM     19  C   UNL     1     147.015 166.457 188.163  0.00  0.00    -0.000 C 
ATOM     20  C   UNL     1     145.519 166.241 188.490  0.00  0.00    +0.064 C 
ATOM     21  C   UNL     1     145.286 165.380 189.761  0.00  0.00    +0.020 C 
ATOM     22  C   UNL     1     143.952 165.711 190.522  0.00  0.00    +0.113 C 
ATOM     23  O   UNL     1     143.063 166.511 189.720  0.00  0.00    -0.458 OA
ATOM     24  C   UNL     1     142.231 165.850 188.879  0.00  0.00    +0.332 C 
ATOM     25  O   UNL     1     141.991 164.654 188.879  0.00  0.00    -0.246 OA
ATOM     26  C   UNL     1     141.673 166.839 187.934  0.00  0.00    +0.023 C 
ATOM     27  C   UNL     1     140.855 166.440 186.949  0.00  0.00    -0.052 C 
ATOM     28  C   UNL     1     140.283 167.317 185.936  0.00  0.00    -0.054 C 
ATOM     29  C   UNL     1     141.025 168.261 185.322  0.00  0.00    -0.079 C 
ATOM     30  C   UNL     1     140.584 169.188 184.219  0.00  0.00    -0.008 C 
ATOM     31  C   UNL     1     140.045 170.525 184.765  0.00  0.00    +0.061 C 
ATOM     32  C   UNL     1     141.037 171.680 184.551  0.00  0.00    +0.003 C 
ATOM     33  C   UNL     1     140.665 172.949 185.338  0.00  0.00    +0.080 C 
ATOM     34  O   UNL     1     141.821 173.800 185.486  0.00  0.00    -0.369 OA
ATOM     35  C   UNL     1     142.064 174.689 184.378  0.00  0.00    +0.065 C 
ATOM     36  C   UNL     1     143.379 175.433 184.694  0.00  0.00    +0.000 C 
ATOM     37  C   UNL     1     143.796 176.496 183.656  0.00  0.00    +0.066 C 
ATOM     38  C   UNL     1     145.102 177.243 184.064  0.00  0.00    +0.009 C 
ATOM     39  C   UNL     1     145.031 178.067 185.380  0.00  0.00    +0.063 C 
ATOM     40  C   UNL     1     144.489 179.513 185.373  0.00  0.00    -0.000 C 
ATOM     41  C   UNL     1     142.973 179.745 185.298  0.00  0.00    +0.064 C 
ATOM     42  C   UNL     1     142.102 178.919 186.272  0.00  0.00    +0.020 C 
ATOM     43  C   UNL     1     140.876 175.653 184.245  0.00  0.00    -0.008 C 
ATOM     44  C   UNL     1     139.569 174.932 184.257  0.00  0.00    -0.083 C 
ATOM     45  C   UNL     1     139.485 173.697 184.763  0.00  0.00    -0.059 C 
ATOM     46  C   UNL     1     144.750 172.462 187.860  0.00  0.00    -0.008 C 
ATOM     47  C   UNL     1     144.560 172.389 189.340  0.00  0.00    -0.083 C 
ATOM     48  C   UNL     1     143.554 171.667 189.858  0.00  0.00    -0.059 C 
ATOM     49  H   UNL     1     143.571 178.918 187.838  0.00  0.00    +0.074 HD
ATOM     50  H   UNL     1     142.380 174.751 188.921  0.00  0.00    +0.069 HD
ATOM     51  H   UNL     1     140.334 176.666 190.216  0.00  0.00    +0.062 HD
ATOM     52  H   UNL     1     142.189 173.825 191.141  0.00  0.00    +0.058 HD
ATOM     53  H   UNL     1     139.927 172.361 192.386  0.00  0.00    +0.033 HD
ATOM     54  H   UNL     1     141.611 171.984 192.381  0.00  0.00    +0.033 HD
ATOM     55  H   UNL     1     139.427 171.036 190.621  0.00  0.00    +0.060 HD
ATOM     56  H   UNL     1     140.826 172.226 188.873  0.00  0.00    +0.032 HD
ATOM     57  H   UNL     1     140.500 170.545 188.666  0.00  0.00    +0.032 HD
ATOM     58  H   UNL     1     142.705 169.844 189.185  0.00  0.00    +0.064 HD
ATOM     59  H   UNL     1     143.964 171.579 186.081  0.00  0.00    +0.060 HD
ATOM     60  H   UNL     1     144.080 169.201 186.781  0.00  0.00    +0.032 HD
ATOM     61  H   UNL     1     144.889 169.645 188.255  0.00  0.00    +0.032 HD
ATOM     62  H   UNL     1     146.861 170.507 186.949  0.00  0.00    +0.060 HD
ATOM     63  H   UNL     1     145.756 167.749 186.281  0.00  0.00    +0.035 HD
ATOM     64  H   UNL     1     148.416 168.005 187.639  0.00  0.00    +0.060 HD
ATOM     65  H   UNL     1     147.620 166.226 189.047  0.00  0.00    +0.032 HD
ATOM     66  H   UNL     1     147.337 165.789 187.356  0.00  0.00    +0.032 HD
ATOM     67  H   UNL     1     145.060 167.217 188.633  0.00  0.00    +0.060 HD
ATOM     68  H   UNL     1     146.112 165.575 190.454  0.00  0.00    +0.036 HD
ATOM     69  H   UNL     1     143.428 164.775 190.759  0.00  0.00    +0.074 HD
ATOM     70  H   UNL     1     141.989 167.867 188.052  0.00  0.00    +0.069 HD
ATOM     71  H   UNL     1     140.576 165.388 186.878  0.00  0.00    +0.062 HD
ATOM     72  H   UNL     1     142.071 168.386 185.606  0.00  0.00    +0.058 HD
ATOM     73  H   UNL     1     141.443 169.357 183.556  0.00  0.00    +0.033 HD
ATOM     74  H   UNL     1     139.839 168.691 183.587  0.00  0.00    +0.033 HD
ATOM     75  H   UNL     1     139.811 170.438 185.833  0.00  0.00    +0.060 HD
ATOM     76  H   UNL     1     142.038 171.360 184.855  0.00  0.00    +0.032 HD
ATOM     77  H   UNL     1     141.103 171.919 183.480  0.00  0.00    +0.032 HD
ATOM     78  H   UNL     1     140.403 172.658 186.362  0.00  0.00    +0.064 HD
ATOM     79  H   UNL     1     142.191 174.093 183.465  0.00  0.00    +0.060 HD
ATOM     80  H   UNL     1     143.285 175.870 185.691  0.00  0.00    +0.032 HD
ATOM     81  H   UNL     1     144.173 174.678 184.782  0.00  0.00    +0.032 HD
ATOM     82  H   UNL     1     142.986 177.213 183.517  0.00  0.00    +0.060 HD
ATOM     83  H   UNL     1     145.853 176.455 184.225  0.00  0.00    +0.035 HD
ATOM     84  H   UNL     1     144.517 177.497 186.147  0.00  0.00    +0.060 HD
ATOM     85  H   UNL     1     144.974 180.068 184.560  0.00  0.00    +0.032 HD
ATOM     86  H   UNL     1     144.851 180.007 186.285  0.00  0.00    +0.032 HD
ATOM     87  H   UNL     1     142.796 180.812 185.483  0.00  0.00    +0.060 HD
ATOM     88  H   UNL     1     142.273 177.867 186.020  0.00  0.00    +0.036 HD
ATOM     89  H   UNL     1     140.952 176.237 183.323  0.00  0.00    +0.033 HD
ATOM     90  H   UNL     1     140.862 176.349 185.086  0.00  0.00    +0.033 HD
ATOM     91  H   UNL     1     138.687 175.434 183.871  0.00  0.00    +0.057 HD
ATOM     92  H   UNL     1     138.525 173.189 184.763  0.00  0.00    +0.059 HD
ATOM     93  H   UNL     1     144.318 173.412 187.520  0.00  0.00    +0.033 HD
ATOM     94  H   UNL     1     145.815 172.488 187.618  0.00  0.00    +0.033 HD
ATOM     95  H   UNL     1     145.260 172.911 189.984  0.00  0.00    +0.057 HD
ATOM     96  H   UNL     1     143.482 171.562 190.935  0.00  0.00    +0.059 HD
ENDROOT
BRANCH  28  97
ATOM     97  C   UNL     1     138.838 167.025 185.630  0.00  0.00    -0.040 C 
ATOM     98  H   UNL     1     138.582 165.968 185.731  0.00  0.00    +0.028 HD
ATOM     99  H   UNL     1     138.181 167.592 186.299  0.00  0.00    +0.028 HD
ATOM    100  H   UNL     1     138.606 167.306 184.596  0.00  0.00    +0.028 HD
ENDBRANCH  28  97
BRANCH  21 101
ATOM    101  C   UNL     1     145.365 163.873 189.475  0.00  0.00    -0.057 C 
ATOM    102  H   UNL     1     145.865 163.329 190.282  0.00  0.00    +0.023 HD
ATOM    103  H   UNL     1     145.927 163.686 188.554  0.00  0.00    +0.023 HD
ATOM    104  H   UNL     1     144.366 163.447 189.340  0.00  0.00    +0.023 HD
ENDBRANCH  21 101
BRANCH  42 105
ATOM    105  C   UNL     1     140.604 179.104 185.981  0.00  0.00    -0.057 C 
ATOM    106  H   UNL     1     140.015 178.347 186.511  0.00  0.00    +0.023 HD
ATOM    107  H   UNL     1     140.241 180.083 186.311  0.00  0.00    +0.023 HD
ATOM    108  H   UNL     1     140.373 178.972 184.922  0.00  0.00    +0.023 HD
ENDBRANCH  42 105
BRANCH  17 109
ATOM    109  C   UNL     1     147.569 168.085 185.285  0.00  0.00    -0.058 C 
ATOM    110  H   UNL     1     148.583 167.860 185.629  0.00  0.00    +0.023 HD
ATOM    111  H   UNL     1     147.621 168.930 184.591  0.00  0.00    +0.023 HD
ATOM    112  H   UNL     1     147.211 167.224 184.709  0.00  0.00    +0.023 HD
ENDBRANCH  17 109
BRANCH  38 113
ATOM    113  C   UNL     1     145.679 178.082 182.913  0.00  0.00    -0.058 C 
ATOM    114  H   UNL     1     146.220 178.956 183.285  0.00  0.00    +0.023 HD
ATOM    115  H   UNL     1     146.367 177.488 182.299  0.00  0.00    +0.023 HD
ATOM    116  H   UNL     1     144.886 178.433 182.245  0.00  0.00    +0.023 HD
ENDBRANCH  38 113
BRANCH   7 117
ATOM    117  C   UNL     1     138.796 174.371 190.515  0.00  0.00    -0.040 C 
ATOM    118  H   UNL     1     138.527 173.485 189.935  0.00  0.00    +0.028 HD
ATOM    119  H   UNL     1     138.312 175.230 190.044  0.00  0.00    +0.028 HD
ATOM    120  H   UNL     1     138.369 174.270 191.519  0.00  0.00    +0.028 HD
ENDBRANCH   7 117
BRANCH   1 121
ATOM    121  C   UNL     1     142.258 180.419 188.504  0.00  0.00    +0.020 C 
ATOM    122  H   UNL     1     142.320 181.193 187.729  0.00  0.00    +0.036 HD
BRANCH 121 123
ATOM    123  C   UNL     1     140.894 180.608 189.161  0.00  0.00    -0.057 C 
ATOM    124  H   UNL     1     140.237 179.752 188.996  0.00  0.00    +0.023 HD
ATOM    125  H   UNL     1     140.999 180.771 190.238  0.00  0.00    +0.023 HD
ATOM    126  H   UNL     1     140.398 181.508 188.795  0.00  0.00    +0.023 HD
ENDBRANCH 121 123
BRANCH 121 127
ATOM    127  C   UNL     1     143.423 180.705 189.510  0.00  0.00    +0.064 C 
ATOM    128  H   UNL     1     143.135 181.599 190.077  0.00  0.00    +0.060 HD
BRANCH 127 129
ATOM    129  C   UNL     1     144.854 180.913 188.910  0.00  0.00    -0.017 C 
ATOM    130  H   UNL     1     145.116 180.036 188.314  0.00  0.00    +0.032 HD
BRANCH 129 131
ATOM    131  C   UNL     1     144.814 182.104 187.937  0.00  0.00    -0.060 C 
ATOM    132  H   UNL     1     145.485 181.945 187.086  0.00  0.00    +0.023 HD
ATOM    133  H   UNL     1     145.121 183.029 188.439  0.00  0.00    +0.023 HD
ATOM    134  H   UNL     1     143.804 182.271 187.551  0.00  0.00    +0.023 HD
ENDBRANCH 129 131
BRANCH 129 135
ATOM    135  C   UNL     1     145.954 181.146 189.973  0.00  0.00    -0.046 C 
ATOM    136  H   UNL     1     145.853 180.424 190.788  0.00  0.00    +0.027 HD
ATOM    137  H   UNL     1     145.811 182.133 190.433  0.00  0.00    +0.027 HD
BRANCH 135 138
ATOM    138  C   UNL     1     147.406 181.085 189.470  0.00  0.00    -0.026 C 
ATOM    139  H   UNL     1     147.368 180.646 188.463  0.00  0.00    +0.029 HD
ATOM    140  H   UNL     1     147.989 180.388 190.084  0.00  0.00    +0.029 HD
BRANCH 138 143
ATOM    141  C   UNL     1     147.677 184.795 189.745  0.00  0.00    +0.059 C 
ATOM    142  O   UNL     1     147.316 183.433 190.007  0.00  0.00    -0.373 OA
ATOM    143  C   UNL     1     148.130 182.438 189.382  0.00  0.00    +0.061 C 
ATOM    144  C   UNL     1     148.410 182.796 187.920  0.00  0.00    -0.000 C 
ATOM    145  C   UNL     1     149.117 184.152 187.802  0.00  0.00    +0.063 C 
ATOM    146  C   UNL     1     149.054 184.941 189.109  0.00  0.00    -0.000 C 
ATOM    147  H   UNL     1     146.917 185.198 189.065  0.00  0.00    +0.059 HD
ATOM    148  H   UNL     1     149.075 182.366 189.931  0.00  0.00    +0.060 HD
ATOM    149  H   UNL     1     148.985 181.996 187.443  0.00  0.00    +0.032 HD
ATOM    150  H   UNL     1     147.451 182.875 187.392  0.00  0.00    +0.032 HD
ATOM    151  H   UNL     1     148.635 184.746 187.013  0.00  0.00    +0.060 HD
ATOM    152  H   UNL     1     149.290 185.995 188.916  0.00  0.00    +0.032 HD
ATOM    153  H   UNL     1     149.827 184.583 189.798  0.00  0.00    +0.032 HD
BRANCH 141 154
ATOM    154  C   UNL     1     147.596 185.559 191.060  0.00  0.00    -0.039 C 
ATOM    155  H   UNL     1     147.696 184.886 191.917  0.00  0.00    +0.025 HD
ATOM    156  H   UNL     1     148.385 186.315 191.116  0.00  0.00    +0.025 HD
ATOM    157  H   UNL     1     146.641 186.089 191.144  0.00  0.00    +0.025 HD
ENDBRANCH 141 154
BRANCH 145 158
ATOM    158  O   UNL     1     150.501 183.983 187.473  0.00  0.00    -0.380 OA
BRANCH 158 159
ATOM    159  C   UNL     1     151.145 185.198 187.107  0.00  0.00    +0.037 C 
ATOM    160  H   UNL     1     151.318 185.778 188.019  0.00  0.00    +0.052 HD
ATOM    161  H   UNL     1     152.109 185.010 186.627  0.00  0.00    +0.052 HD
ATOM    162  H   UNL     1     150.501 185.781 186.442  0.00  0.00    +0.052 HD
ENDBRANCH 158 159
ENDBRANCH 145 158
ENDBRANCH 138 143
ENDBRANCH 135 138
ENDBRANCH 129 135
ENDBRANCH 127 129
BRANCH 127 163
ATOM    163  O   UNL     1     143.438 179.639 190.469  0.00  0.00    -0.391 OA
ATOM    164  H   UNL     1     143.773 180.008 191.304  0.00  0.00    +0.210 HD
ENDBRANCH 127 163
ENDBRANCH 121 127
ENDBRANCH   1 121
BRANCH  41 165
ATOM    165  O   UNL     1     142.559 179.497 183.952  0.00  0.00    -0.391 OA
ATOM    166  H   UNL     1     141.626 179.226 183.980  0.00  0.00    +0.210 HD
ENDBRANCH  41 165
BRANCH  39 167
ATOM    167  O   UNL     1     146.390 178.191 185.864  0.00  0.00    -0.391 OA
ATOM    168  H   UNL     1     146.394 177.837 186.771  0.00  0.00    +0.210 HD
ENDBRANCH  39 167
BRANCH  31 169
ATOM    169  O   UNL     1     138.814 170.820 184.097  0.00  0.00    -0.391 OA
ATOM    170  H   UNL     1     138.120 170.870 184.780  0.00  0.00    +0.210 HD
ENDBRANCH  31 169
BRANCH  22 171
ATOM    171  C   UNL     1     144.191 166.428 191.906  0.00  0.00    +0.020 C 
ATOM    172  H   UNL     1     143.884 167.473 191.765  0.00  0.00    +0.036 HD
BRANCH 171 173
ATOM    173  C   UNL     1     143.242 165.772 192.931  0.00  0.00    -0.057 C 
ATOM    174  H   UNL     1     142.235 166.198 192.881  0.00  0.00    +0.023 HD
ATOM    175  H   UNL     1     143.153 164.693 192.768  0.00  0.00    +0.023 HD
ATOM    176  H   UNL     1     143.565 165.933 193.959  0.00  0.00    +0.023 HD
ENDBRANCH 171 173
BRANCH 171 177
ATOM    177  C   UNL     1     145.679 166.443 192.390  0.00  0.00    +0.064 C 
ATOM    178  H   UNL     1     146.205 165.602 191.922  0.00  0.00    +0.060 HD
BRANCH 177 179
ATOM    179  O   UNL     1     146.289 167.645 191.920  0.00  0.00    -0.391 OA
ATOM    180  H   UNL     1     146.758 168.075 192.664  0.00  0.00    +0.210 HD
ENDBRANCH 177 179
BRANCH 177 181
ATOM    181  C   UNL     1     145.956 166.400 193.928  0.00  0.00    -0.017 C 
ATOM    182  H   UNL     1     145.086 166.833 194.441  0.00  0.00    +0.032 HD
BRANCH 181 183
ATOM    183  C   UNL     1     146.167 164.996 194.492  0.00  0.00    -0.060 C 
ATOM    184  H   UNL     1     146.611 164.343 193.735  0.00  0.00    +0.023 HD
ATOM    185  H   UNL     1     145.226 164.505 194.754  0.00  0.00    +0.023 HD
ATOM    186  H   UNL     1     146.800 165.013 195.384  0.00  0.00    +0.023 HD
ENDBRANCH 181 183
BRANCH 181 187
ATOM    187  C   UNL     1     147.164 167.330 194.253  0.00  0.00    -0.046 C 
ATOM    188  H   UNL     1     146.966 167.853 195.197  0.00  0.00    +0.027 HD
ATOM    189  H   UNL     1     147.243 168.104 193.478  0.00  0.00    +0.027 HD
BRANCH 187 190
ATOM    190  C   UNL     1     148.517 166.613 194.378  0.00  0.00    -0.026 C 
ATOM    191  H   UNL     1     148.945 166.797 195.370  0.00  0.00    +0.029 HD
ATOM    192  H   UNL     1     148.344 165.533 194.278  0.00  0.00    +0.029 HD
BRANCH 190 193
ATOM    193  C   UNL     1     149.525 167.041 193.300  0.00  0.00    +0.061 C 
ATOM    194  O   UNL     1     149.011 168.196 192.630  0.00  0.00    -0.373 OA
ATOM    195  C   UNL     1     149.868 168.714 191.608  0.00  0.00    +0.059 C 
ATOM    196  C   UNL     1     150.179 167.647 190.553  0.00  0.00    -0.000 C 
ATOM    197  C   UNL     1     150.656 166.325 191.156  0.00  0.00    +0.063 C 
ATOM    198  C   UNL     1     149.732 165.903 192.297  0.00  0.00    -0.000 C 
ATOM    199  H   UNL     1     150.469 167.292 193.798  0.00  0.00    +0.060 HD
ATOM    200  H   UNL     1     149.287 169.501 191.109  0.00  0.00    +0.059 HD
ATOM    201  H   UNL     1     150.894 168.041 189.825  0.00  0.00    +0.032 HD
ATOM    202  H   UNL     1     149.248 167.437 190.009  0.00  0.00    +0.032 HD
ATOM    203  H   UNL     1     150.636 165.539 190.390  0.00  0.00    +0.060 HD
ATOM    204  H   UNL     1     150.143 165.026 192.811  0.00  0.00    +0.032 HD
ATOM    205  H   UNL     1     148.764 165.618 191.865  0.00  0.00    +0.032 HD
BRANCH 195 206
ATOM    206  C   UNL     1     151.101 169.400 192.190  0.00  0.00    -0.039 C 
ATOM    207  H   UNL     1     151.932 169.352 191.476  0.00  0.00    +0.025 HD
ATOM    208  H   UNL     1     151.414 168.916 193.120  0.00  0.00    +0.025 HD
ATOM    209  H   UNL     1     150.941 170.461 192.401  0.00  0.00    +0.025 HD
ENDBRANCH 195 206
BRANCH 197 210
ATOM    210  O   UNL     1     151.985 166.424 191.677  0.00  0.00    -0.380 OA
BRANCH 210 211
ATOM    211  C   UNL     1     152.984 166.515 190.671  0.00  0.00    +0.037 C 
ATOM    212  H   UNL     1     152.490 166.703 189.715  0.00  0.00    +0.052 HD
ATOM    213  H   UNL     1     153.661 167.349 190.881  0.00  0.00    +0.052 HD
ATOM    214  H   UNL     1     153.551 165.584 190.588  0.00  0.00    +0.052 HD
ENDBRANCH 210 211
ENDBRANCH 197 210
ENDBRANCH 190 193
ENDBRANCH 187 190
ENDBRANCH 181 187
ENDBRANCH 177 181
ENDBRANCH 171 177
ENDBRANCH  22 171
BRANCH  20 215
ATOM    215  O   UNL     1     144.868 165.678 187.349  0.00  0.00    -0.391 OA
ATOM    216  H   UNL     1     144.695 166.379 186.700  0.00  0.00    +0.210 HD
ENDBRANCH  20 215
BRANCH  18 217
ATOM    217  O   UNL     1     147.031 168.753 188.907  0.00  0.00    -0.391 OA
ATOM    218  H   UNL     1     147.047 169.676 188.591  0.00  0.00    +0.210 HD
ENDBRANCH  18 217
BRANCH  10 219
ATOM    219  O   UNL     1     140.949 169.889 191.322  0.00  0.00    -0.391 OA
ATOM    220  H   UNL     1     141.787 170.056 191.785  0.00  0.00    +0.210 HD
ENDBRANCH  10 219
BRANCH  37 221
ATOM    221  O   UNL     1     144.043 175.777 182.433  0.00  0.00    -0.379 OA
BRANCH 221 222
ATOM    222  C   UNL     1     143.203 176.180 181.359  0.00  0.00    +0.037 C 
ATOM    223  H   UNL     1     142.448 176.864 181.757  0.00  0.00    +0.052 HD
ATOM    224  H   UNL     1     143.787 176.716 180.606  0.00  0.00    +0.052 HD
ATOM    225  H   UNL     1     142.695 175.326 180.903  0.00  0.00    +0.052 HD
ENDBRANCH 221 222
ENDBRANCH  37 221
BRANCH  16 226
ATOM    226  O   UNL     1     145.877 170.266 185.118  0.00  0.00    -0.379 OA
BRANCH 226 227
ATOM    227  C   UNL     1     146.633 171.409 184.733  0.00  0.00    +0.037 C 
ATOM    228  H   UNL     1     147.691 171.130 184.710  0.00  0.00    +0.052 HD
ATOM    229  H   UNL     1     146.341 171.745 183.733  0.00  0.00    +0.052 HD
ATOM    230  H   UNL     1     146.503 172.221 185.454  0.00  0.00    +0.052 HD
ENDBRANCH 226 227
ENDBRANCH  16 226
TORSDOF 40
ENDMDL
MODEL 3
REMARK VINA RESULT:      -5.5      5.937     10.428
REMARK  Name = Swinholide A_conf3
REMARK  40 active torsions:
REMARK  status: ('A' for Active; 'I' for Inactive)
REMARK    1  A    between atoms: C_1  and  C_2
REMARK    2  A    between atoms: C_4  and  C_10
REMARK    3  A    between atoms: C_6  and  O_8
REMARK    4  A    between atoms: O_8  and  C_9
REMARK    5  A    between atoms: C_10  and  C_11
REMARK    6  A    between atoms: C_11  and  C_12
REMARK    7  A    between atoms: C_12  and  C_13
REMARK    8  A    between atoms: C_12  and  C_98
REMARK    9  A    between atoms: C_13  and  O_14
REMARK   10  A    between atoms: C_13  and  C_15
REMARK   11  A    between atoms: C_15  and  C_16
REMARK   12  A    between atoms: C_15  and  C_97
REMARK   13  A    between atoms: C_22  and  C_96
REMARK   14  A    between atoms: C_25  and  O_95
REMARK   15  A    between atoms: C_31  and  O_90
REMARK   16  A    between atoms: C_32  and  C_89
REMARK   17  A    between atoms: C_33  and  O_88
REMARK   18  A    between atoms: C_35  and  O_87
REMARK   19  A    between atoms: C_36  and  C_86
REMARK   20  A    between atoms: C_37  and  C_69
REMARK   21  A    between atoms: C_43  and  C_68
REMARK   22  A    between atoms: C_46  and  O_67
REMARK   23  A    between atoms: C_52  and  O_62
REMARK   24  A    between atoms: C_53  and  C_61
REMARK   25  A    between atoms: C_54  and  O_60
REMARK   26  A    between atoms: C_56  and  O_59
REMARK   27  A    between atoms: C_57  and  C_58
REMARK   28  A    between atoms: O_62  and  C_63
REMARK   29  A    between atoms: C_69  and  C_70
REMARK   30  A    between atoms: C_69  and  C_85
REMARK   31  A    between atoms: C_70  and  O_71
REMARK   32  A    between atoms: C_70  and  C_72
REMARK   33  A    between atoms: C_72  and  C_73
REMARK   34  A    between atoms: C_72  and  C_84
REMARK   35  A    between atoms: C_73  and  C_74
REMARK   36  A    between atoms: C_74  and  C_75
REMARK   37  A    between atoms: C_77  and  C_83
REMARK   38  A    between atoms: C_79  and  O_81
REMARK   39  A    between atoms: O_81  and  C_82
REMARK   40  A    between atoms: O_90  and  C_91
REMARK                            x       y       z     vdW  Elec       q    Type
REMARK                         _______ _______ _______ _____ _____    ______ ____
ROOT
ATOM      1  C   UNL     1     146.571 166.830 187.443  0.00  0.00    +0.113 C 
ATOM      2  O   UNL     1     146.672 167.739 186.316  0.00  0.00    -0.458 OA
ATOM      3  C   UNL     1     146.419 169.041 186.615  0.00  0.00    +0.332 C 
ATOM      4  O   UNL     1     146.230 169.498 187.734  0.00  0.00    -0.246 OA
ATOM      5  C   UNL     1     146.352 169.920 185.443  0.00  0.00    +0.023 C 
ATOM      6  C   UNL     1     146.933 169.719 184.252  0.00  0.00    -0.052 C 
ATOM      7  C   UNL     1     146.895 170.736 183.204  0.00  0.00    -0.054 C 
ATOM      8  C   UNL     1     147.138 172.027 183.509  0.00  0.00    -0.079 C 
ATOM      9  C   UNL     1     147.070 173.228 182.614  0.00  0.00    -0.008 C 
ATOM     10  C   UNL     1     145.664 173.786 182.299  0.00  0.00    +0.061 C 
ATOM     11  C   UNL     1     144.521 173.438 183.261  0.00  0.00    +0.003 C 
ATOM     12  C   UNL     1     144.365 174.229 184.571  0.00  0.00    +0.080 C 
ATOM     13  O   UNL     1     143.224 173.614 185.205  0.00  0.00    -0.369 OA
ATOM     14  C   UNL     1     143.050 173.898 186.605  0.00  0.00    +0.065 C 
ATOM     15  C   UNL     1     142.668 175.376 186.797  0.00  0.00    +0.000 C 
ATOM     16  C   UNL     1     142.171 175.756 188.206  0.00  0.00    +0.066 C 
ATOM     17  C   UNL     1     141.641 177.220 188.207  0.00  0.00    +0.009 C 
ATOM     18  C   UNL     1     142.738 178.319 188.307  0.00  0.00    +0.063 C 
ATOM     19  C   UNL     1     142.434 179.570 187.448  0.00  0.00    -0.000 C 
ATOM     20  C   UNL     1     142.414 179.258 185.935  0.00  0.00    +0.064 C 
ATOM     21  C   UNL     1     143.170 180.310 185.079  0.00  0.00    +0.020 C 
ATOM     22  C   UNL     1     143.789 179.733 183.755  0.00  0.00    +0.113 C 
ATOM     23  O   UNL     1     143.262 178.430 183.442  0.00  0.00    -0.458 OA
ATOM     24  C   UNL     1     142.109 178.389 182.730  0.00  0.00    +0.332 C 
ATOM     25  O   UNL     1     141.583 179.316 182.136  0.00  0.00    -0.246 OA
ATOM     26  C   UNL     1     141.581 177.012 182.816  0.00  0.00    +0.023 C 
ATOM     27  C   UNL     1     140.408 176.706 182.242  0.00  0.00    -0.052 C 
ATOM     28  C   UNL     1     139.769 175.398 182.301  0.00  0.00    -0.054 C 
ATOM     29  C   UNL     1     139.715 174.691 183.448  0.00  0.00    -0.079 C 
ATOM     30  C   UNL     1     139.037 173.364 183.666  0.00  0.00    -0.008 C 
ATOM     31  C   UNL     1     139.995 172.178 183.441  0.00  0.00    +0.061 C 
ATOM     32  C   UNL     1     140.424 171.520 184.762  0.00  0.00    +0.003 C 
ATOM     33  C   UNL     1     141.597 170.538 184.595  0.00  0.00    +0.080 C 
ATOM     34  O   UNL     1     142.253 170.324 185.862  0.00  0.00    -0.369 OA
ATOM     35  C   UNL     1     141.657 169.304 186.687  0.00  0.00    +0.065 C 
ATOM     36  C   UNL     1     142.445 169.300 188.015  0.00  0.00    +0.000 C 
ATOM     37  C   UNL     1     142.008 168.223 189.032  0.00  0.00    +0.066 C 
ATOM     38  C   UNL     1     142.879 168.242 190.325  0.00  0.00    +0.009 C 
ATOM     39  C   UNL     1     144.390 167.933 190.133  0.00  0.00    +0.063 C 
ATOM     40  C   UNL     1     144.894 166.474 190.102  0.00  0.00    -0.000 C 
ATOM     41  C   UNL     1     144.694 165.639 188.828  0.00  0.00    +0.064 C 
ATOM     42  C   UNL     1     145.101 166.308 187.496  0.00  0.00    +0.020 C 
ATOM     43  C   UNL     1     141.754 167.955 185.958  0.00  0.00    -0.008 C 
ATOM     44  C   UNL     1     141.272 168.049 184.548  0.00  0.00    -0.083 C 
ATOM     45  C   UNL     1     141.208 169.235 183.934  0.00  0.00    -0.059 C 
ATOM     46  C   UNL     1     144.281 173.417 187.385  0.00  0.00    -0.008 C 
ATOM     47  C   UNL     1     145.555 173.881 186.754  0.00  0.00    -0.083 C 
ATOM     48  C   UNL     1     145.574 174.259 185.467  0.00  0.00    -0.059 C 
ATOM     49  H   UNL     1     146.729 167.407 188.360  0.00  0.00    +0.074 HD
ATOM     50  H   UNL     1     145.817 170.843 185.654  0.00  0.00    +0.069 HD
ATOM     51  H   UNL     1     147.460 168.794 184.030  0.00  0.00    +0.062 HD
ATOM     52  H   UNL     1     147.406 172.274 184.537  0.00  0.00    +0.058 HD
ATOM     53  H   UNL     1     147.586 173.015 181.668  0.00  0.00    +0.033 HD
ATOM     54  H   UNL     1     147.681 174.017 183.071  0.00  0.00    +0.033 HD
ATOM     55  H   UNL     1     145.379 173.378 181.319  0.00  0.00    +0.060 HD
ATOM     56  H   UNL     1     144.505 172.361 183.471  0.00  0.00    +0.032 HD
ATOM     57  H   UNL     1     143.581 173.602 182.709  0.00  0.00    +0.032 HD
ATOM     58  H   UNL     1     144.092 175.260 184.325  0.00  0.00    +0.064 HD
ATOM     59  H   UNL     1     142.201 173.283 186.921  0.00  0.00    +0.060 HD
ATOM     60  H   UNL     1     141.873 175.591 186.071  0.00  0.00    +0.032 HD
ATOM     61  H   UNL     1     143.503 176.013 186.506  0.00  0.00    +0.032 HD
ATOM     62  H   UNL     1     142.978 175.651 188.942  0.00  0.00    +0.060 HD
ATOM     63  H   UNL     1     141.081 177.350 187.274  0.00  0.00    +0.035 HD
ATOM     64  H   UNL     1     142.808 178.643 189.354  0.00  0.00    +0.060 HD
ATOM     65  H   UNL     1     143.226 180.298 187.662  0.00  0.00    +0.032 HD
ATOM     66  H   UNL     1     141.483 180.013 187.767  0.00  0.00    +0.032 HD
ATOM     67  H   UNL     1     142.874 178.282 185.785  0.00  0.00    +0.060 HD
ATOM     68  H   UNL     1     143.998 180.699 185.682  0.00  0.00    +0.036 HD
ATOM     69  H   UNL     1     143.540 180.399 182.918  0.00  0.00    +0.074 HD
ATOM     70  H   UNL     1     142.155 176.298 183.390  0.00  0.00    +0.069 HD
ATOM     71  H   UNL     1     139.870 177.471 181.680  0.00  0.00    +0.062 HD
ATOM     72  H   UNL     1     140.180 175.098 184.347  0.00  0.00    +0.058 HD
ATOM     73  H   UNL     1     138.639 173.352 184.690  0.00  0.00    +0.033 HD
ATOM     74  H   UNL     1     138.153 173.284 183.024  0.00  0.00    +0.033 HD
ATOM     75  H   UNL     1     140.885 172.502 182.888  0.00  0.00    +0.060 HD
ATOM     76  H   UNL     1     140.718 172.297 185.475  0.00  0.00    +0.032 HD
ATOM     77  H   UNL     1     139.570 170.998 185.212  0.00  0.00    +0.032 HD
ATOM     78  H   UNL     1     142.359 171.011 183.965  0.00  0.00    +0.064 HD
ATOM     79  H   UNL     1     140.611 169.571 186.883  0.00  0.00    +0.060 HD
ATOM     80  H   UNL     1     143.507 169.209 187.774  0.00  0.00    +0.032 HD
ATOM     81  H   UNL     1     142.334 170.295 188.468  0.00  0.00    +0.032 HD
ATOM     82  H   UNL     1     142.056 167.237 188.568  0.00  0.00    +0.060 HD
ATOM     83  H   UNL     1     142.814 169.272 190.707  0.00  0.00    +0.035 HD
ATOM     84  H   UNL     1     144.769 168.461 189.264  0.00  0.00    +0.060 HD
ATOM     85  H   UNL     1     144.463 165.932 190.953  0.00  0.00    +0.032 HD
ATOM     86  H   UNL     1     145.972 166.492 190.315  0.00  0.00    +0.032 HD
ATOM     87  H   UNL     1     145.270 164.714 188.951  0.00  0.00    +0.060 HD
ATOM     88  H   UNL     1     144.468 167.196 187.393  0.00  0.00    +0.036 HD
ATOM     89  H   UNL     1     141.175 167.189 186.482  0.00  0.00    +0.033 HD
ATOM     90  H   UNL     1     142.794 167.625 185.917  0.00  0.00    +0.033 HD
ATOM     91  H   UNL     1     140.998 167.138 184.024  0.00  0.00    +0.057 HD
ATOM     92  H   UNL     1     140.856 169.282 182.908  0.00  0.00    +0.059 HD
ATOM     93  H   UNL     1     144.299 172.320 187.394  0.00  0.00    +0.033 HD
ATOM     94  H   UNL     1     144.235 173.747 188.425  0.00  0.00    +0.033 HD
ATOM     95  H   UNL     1     146.453 173.924 187.361  0.00  0.00    +0.057 HD
ATOM     96  H   UNL     1     146.488 174.668 185.052  0.00  0.00    +0.059 HD
ENDROOT
BRANCH  28  97
ATOM     97  C   UNL     1     139.157 174.966 180.995  0.00  0.00    -0.040 C 
ATOM     98  H   UNL     1     139.837 175.069 180.146  0.00  0.00    +0.028 HD
ATOM     99  H   UNL     1     138.844 173.917 181.045  0.00  0.00    +0.028 HD
ATOM    100  H   UNL     1     138.278 175.580 180.768  0.00  0.00    +0.028 HD
ENDBRANCH  28  97
BRANCH  21 101
ATOM    101  C   UNL     1     142.307 181.540 184.760  0.00  0.00    -0.057 C 
ATOM    102  H   UNL     1     142.522 181.944 183.767  0.00  0.00    +0.023 HD
ATOM    103  H   UNL     1     142.491 182.337 185.488  0.00  0.00    +0.023 HD
ATOM    104  H   UNL     1     141.241 181.294 184.809  0.00  0.00    +0.023 HD
ENDBRANCH  21 101
BRANCH  42 105
ATOM    105  C   UNL     1     144.689 165.451 186.288  0.00  0.00    -0.057 C 
ATOM    106  H   UNL     1     145.536 164.849 185.939  0.00  0.00    +0.023 HD
ATOM    107  H   UNL     1     143.880 164.756 186.537  0.00  0.00    +0.023 HD
ATOM    108  H   UNL     1     144.389 166.063 185.435  0.00  0.00    +0.023 HD
ENDBRANCH  42 105
BRANCH  17 109
ATOM    109  C   UNL     1     140.595 177.474 189.308  0.00  0.00    -0.058 C 
ATOM    110  H   UNL     1     140.065 178.416 189.143  0.00  0.00    +0.023 HD
ATOM    111  H   UNL     1     141.059 177.508 190.300  0.00  0.00    +0.023 HD
ATOM    112  H   UNL     1     139.852 176.669 189.336  0.00  0.00    +0.023 HD
ENDBRANCH  17 109
BRANCH  38 113
ATOM    113  C   UNL     1     142.273 167.387 191.449  0.00  0.00    -0.058 C 
ATOM    114  H   UNL     1     143.032 167.089 192.179  0.00  0.00    +0.023 HD
ATOM    115  H   UNL     1     141.482 167.931 191.977  0.00  0.00    +0.023 HD
ATOM    116  H   UNL     1     141.814 166.477 191.048  0.00  0.00    +0.023 HD
ENDBRANCH  38 113
BRANCH   7 117
ATOM    117  C   UNL     1     146.556 170.234 181.831  0.00  0.00    -0.040 C 
ATOM    118  H   UNL     1     146.565 171.061 181.117  0.00  0.00    +0.028 HD
ATOM    119  H   UNL     1     145.567 169.773 181.786  0.00  0.00    +0.028 HD
ATOM    120  H   UNL     1     147.280 169.482 181.499  0.00  0.00    +0.028 HD
ENDBRANCH   7 117
BRANCH   1 121
ATOM    121  C   UNL     1     147.747 165.807 187.452  0.00  0.00    +0.020 C 
ATOM    122  H   UNL     1     147.370 164.913 187.964  0.00  0.00    +0.036 HD
BRANCH 121 123
ATOM    123  C   UNL     1     148.225 165.323 186.086  0.00  0.00    -0.057 C 
ATOM    124  H   UNL     1     149.139 165.829 185.768  0.00  0.00    +0.023 HD
ATOM    125  H   UNL     1     148.403 164.243 186.095  0.00  0.00    +0.023 HD
ATOM    126  H   UNL     1     147.459 165.468 185.323  0.00  0.00    +0.023 HD
ENDBRANCH 121 123
BRANCH 121 127
ATOM    127  C   UNL     1     148.935 166.346 188.317  0.00  0.00    +0.064 C 
ATOM    128  H   UNL     1     149.699 165.559 188.326  0.00  0.00    +0.060 HD
BRANCH 127 129
ATOM    129  C   UNL     1     148.614 166.772 189.789  0.00  0.00    -0.017 C 
ATOM    130  H   UNL     1     147.734 166.223 190.130  0.00  0.00    +0.032 HD
BRANCH 129 131
ATOM    131  C   UNL     1     149.778 166.335 190.695  0.00  0.00    -0.060 C 
ATOM    132  H   UNL     1     150.298 167.200 191.120  0.00  0.00    +0.023 HD
ATOM    133  H   UNL     1     150.510 165.743 190.134  0.00  0.00    +0.023 HD
ATOM    134  H   UNL     1     149.427 165.707 191.520  0.00  0.00    +0.023 HD
ENDBRANCH 129 131
BRANCH 129 135
ATOM    135  C   UNL     1     148.361 168.288 189.964  0.00  0.00    -0.046 C 
ATOM    136  H   UNL     1     147.334 168.537 189.681  0.00  0.00    +0.027 HD
ATOM    137  H   UNL     1     149.003 168.846 189.269  0.00  0.00    +0.027 HD
BRANCH 135 138
ATOM    138  C   UNL     1     148.611 168.859 191.371  0.00  0.00    -0.026 C 
ATOM    139  H   UNL     1     149.699 168.849 191.521  0.00  0.00    +0.029 HD
ATOM    140  H   UNL     1     148.192 168.187 192.130  0.00  0.00    +0.029 HD
BRANCH 138 143
ATOM    141  C   UNL     1     146.512 171.856 190.641  0.00  0.00    +0.059 C 
ATOM    142  O   UNL     1     146.936 170.496 190.799  0.00  0.00    -0.373 OA
ATOM    143  C   UNL     1     148.101 170.291 191.600  0.00  0.00    +0.061 C 
ATOM    144  C   UNL     1     149.193 171.305 191.249  0.00  0.00    -0.000 C 
ATOM    145  C   UNL     1     148.706 172.745 191.452  0.00  0.00    +0.063 C 
ATOM    146  C   UNL     1     147.189 172.813 191.615  0.00  0.00    -0.000 C 
ATOM    147  H   UNL     1     146.760 172.146 189.613  0.00  0.00    +0.059 HD
ATOM    148  H   UNL     1     147.823 170.400 192.654  0.00  0.00    +0.060 HD
ATOM    149  H   UNL     1     150.097 171.097 191.831  0.00  0.00    +0.032 HD
ATOM    150  H   UNL     1     149.449 171.187 190.188  0.00  0.00    +0.032 HD
ATOM    151  H   UNL     1     148.991 173.351 190.580  0.00  0.00    +0.060 HD
ATOM    152  H   UNL     1     146.847 173.844 191.457  0.00  0.00    +0.032 HD
ATOM    153  H   UNL     1     146.913 172.561 192.644  0.00  0.00    +0.032 HD
BRANCH 141 154
ATOM    154  C   UNL     1     144.998 171.893 190.797  0.00  0.00    -0.039 C 
ATOM    155  H   UNL     1     144.503 172.024 189.830  0.00  0.00    +0.025 HD
ATOM    156  H   UNL     1     144.635 170.966 191.252  0.00  0.00    +0.025 HD
ATOM    157  H   UNL     1     144.694 172.711 191.457  0.00  0.00    +0.025 HD
ENDBRANCH 141 154
BRANCH 145 158
ATOM    158  O   UNL     1     149.287 173.323 192.627  0.00  0.00    -0.380 OA
BRANCH 158 159
ATOM    159  C   UNL     1     149.427 172.398 193.698  0.00  0.00    +0.037 C 
ATOM    160  H   UNL     1     150.471 172.072 193.731  0.00  0.00    +0.052 HD
ATOM    161  H   UNL     1     149.176 172.857 194.658  0.00  0.00    +0.052 HD
ATOM    162  H   UNL     1     148.795 171.521 193.525  0.00  0.00    +0.052 HD
ENDBRANCH 158 159
ENDBRANCH 145 158
ENDBRANCH 138 143
ENDBRANCH 135 138
ENDBRANCH 129 135
ENDBRANCH 127 129
BRANCH 127 163
ATOM    163  O   UNL     1     149.528 167.439 187.603  0.00  0.00    -0.391 OA
ATOM    164  H   UNL     1     148.880 168.165 187.599  0.00  0.00    +0.210 HD
ENDBRANCH 127 163
ENDBRANCH 121 127
ENDBRANCH   1 121
BRANCH  41 165
ATOM    165  O   UNL     1     143.319 165.250 188.773  0.00  0.00    -0.391 OA
ATOM    166  H   UNL     1     143.290 164.279 188.790  0.00  0.00    +0.210 HD
ENDBRANCH  41 165
BRANCH  39 167
ATOM    167  O   UNL     1     145.080 168.532 191.256  0.00  0.00    -0.391 OA
ATOM    168  H   UNL     1     145.392 169.403 190.956  0.00  0.00    +0.210 HD
ENDBRANCH  39 167
BRANCH  31 169
ATOM    169  O   UNL     1     139.329 171.212 182.619  0.00  0.00    -0.391 OA
ATOM    170  H   UNL     1     139.655 171.335 181.708  0.00  0.00    +0.210 HD
ENDBRANCH  31 169
BRANCH  22 171
ATOM    171  C   UNL     1     145.364 179.662 183.789  0.00  0.00    +0.020 C 
ATOM    172  H   UNL     1     145.664 180.020 184.783  0.00  0.00    +0.036 HD
BRANCH 171 173
ATOM    173  C   UNL     1     145.758 178.175 183.663  0.00  0.00    -0.057 C 
ATOM    174  H   UNL     1     145.763 177.844 182.620  0.00  0.00    +0.023 HD
ATOM    175  H   UNL     1     146.754 177.983 184.076  0.00  0.00    +0.023 HD
ATOM    176  H   UNL     1     145.052 177.513 184.164  0.00  0.00    +0.023 HD
ENDBRANCH 171 173
BRANCH 171 177
ATOM    177  C   UNL     1     146.086 180.564 182.734  0.00  0.00    +0.064 C 
ATOM    178  H   UNL     1     146.818 179.950 182.194  0.00  0.00    +0.060 HD
BRANCH 177 179
ATOM    179  O   UNL     1     145.115 181.006 181.786  0.00  0.00    -0.391 OA
ATOM    180  H   UNL     1     145.564 181.538 181.096  0.00  0.00    +0.210 HD
ENDBRANCH 177 179
BRANCH 177 181
ATOM    181  C   UNL     1     146.808 181.857 183.237  0.00  0.00    -0.017 C 
ATOM    182  H   UNL     1     147.890 181.672 183.209  0.00  0.00    +0.032 HD
BRANCH 181 183
ATOM    183  C   UNL     1     146.535 183.101 182.394  0.00  0.00    -0.060 C 
ATOM    184  H   UNL     1     146.520 182.846 181.331  0.00  0.00    +0.023 HD
ATOM    185  H   UNL     1     147.329 183.847 182.481  0.00  0.00    +0.023 HD
ATOM    186  H   UNL     1     145.591 183.577 182.674  0.00  0.00    +0.023 HD
ENDBRANCH 181 183
BRANCH 181 187
ATOM    187  C   UNL     1     146.441 182.093 184.734  0.00  0.00    -0.046 C 
ATOM    188  H   UNL     1     145.637 181.403 185.016  0.00  0.00    +0.027 HD
ATOM    189  H   UNL     1     146.037 183.108 184.850  0.00  0.00    +0.027 HD
BRANCH 187 190
ATOM    190  C   UNL     1     147.603 181.905 185.720  0.00  0.00    -0.026 C 
ATOM    191  H   UNL     1     148.110 180.954 185.521  0.00  0.00    +0.029 HD
ATOM    192  H   UNL     1     148.326 182.715 185.559  0.00  0.00    +0.029 HD
BRANCH 190 193
ATOM    193  C   UNL     1     147.155 181.945 187.190  0.00  0.00    +0.061 C 
ATOM    194  O   UNL     1     147.732 180.826 187.871  0.00  0.00    -0.373 OA
ATOM    195  C   UNL     1     147.409 180.754 189.263  0.00  0.00    +0.059 C 
ATOM    196  C   UNL     1     145.893 180.716 189.479  0.00  0.00    -0.000 C 
ATOM    197  C   UNL     1     145.149 181.818 188.723  0.00  0.00    +0.063 C 
ATOM    198  C   UNL     1     145.628 181.877 187.273  0.00  0.00    -0.000 C 
ATOM    199  H   UNL     1     147.524 182.877 187.633  0.00  0.00    +0.060 HD
ATOM    200  H   UNL     1     147.808 179.791 189.607  0.00  0.00    +0.059 HD
ATOM    201  H   UNL     1     145.669 180.738 190.549  0.00  0.00    +0.032 HD
ATOM    202  H   UNL     1     145.527 179.755 189.093  0.00  0.00    +0.032 HD
ATOM    203  H   UNL     1     144.072 181.604 188.719  0.00  0.00    +0.060 HD
ATOM    204  H   UNL     1     145.190 182.745 186.766  0.00  0.00    +0.032 HD
ATOM    205  H   UNL     1     145.275 180.973 186.760  0.00  0.00    +0.032 HD
BRANCH 195 206
ATOM    206  C   UNL     1     148.133 181.828 190.074  0.00  0.00    -0.039 C 
ATOM    207  H   UNL     1     148.983 182.221 189.503  0.00  0.00    +0.025 HD
ATOM    208  H   UNL     1     148.507 181.417 191.016  0.00  0.00    +0.025 HD
ATOM    209  H   UNL     1     147.499 182.686 190.308  0.00  0.00    +0.025 HD
ENDBRANCH 195 206
BRANCH 197 210
ATOM    210  O   UNL     1     145.360 183.105 189.311  0.00  0.00    -0.380 OA
BRANCH 210 211
ATOM    211  C   UNL     1     144.711 183.270 190.564  0.00  0.00    +0.037 C 
ATOM    212  H   UNL     1     144.300 184.282 190.605  0.00  0.00    +0.052 HD
ATOM    213  H   UNL     1     143.887 182.558 190.663  0.00  0.00    +0.052 HD
ATOM    214  H   UNL     1     145.413 183.150 191.394  0.00  0.00    +0.052 HD
ENDBRANCH 210 211
ENDBRANCH 197 210
ENDBRANCH 190 193
ENDBRANCH 187 190
ENDBRANCH 181 187
ENDBRANCH 177 181
ENDBRANCH 171 177
ENDBRANCH  22 171
BRANCH  20 215
ATOM    215  O   UNL     1     141.059 179.109 185.506  0.00  0.00    -0.391 OA
ATOM    216  H   UNL     1     141.040 178.617 184.668  0.00  0.00    +0.210 HD
ENDBRANCH  20 215
BRANCH  18 217
ATOM    217  O   UNL     1     144.047 177.852 187.967  0.00  0.00    -0.391 OA
ATOM    218  H   UNL     1     143.940 177.228 187.224  0.00  0.00    +0.210 HD
ENDBRANCH  18 217
BRANCH  10 219
ATOM    219  O   UNL     1     145.769 175.201 182.126  0.00  0.00    -0.391 OA
ATOM    220  H   UNL     1     145.006 175.619 182.559  0.00  0.00    +0.210 HD
ENDBRANCH  10 219
BRANCH  37 221
ATOM    221  O   UNL     1     140.651 168.544 189.388  0.00  0.00    -0.379 OA
BRANCH 221 222
ATOM    222  C   UNL     1     140.492 169.869 189.878  0.00  0.00    +0.037 C 
ATOM    223  H   UNL     1     139.914 169.822 190.805  0.00  0.00    +0.052 HD
ATOM    224  H   UNL     1     141.468 170.305 190.105  0.00  0.00    +0.052 HD
ATOM    225  H   UNL     1     139.956 170.501 189.164  0.00  0.00    +0.052 HD
ENDBRANCH 221 222
ENDBRANCH  37 221
BRANCH  16 226
ATOM    226  O   UNL     1     141.084 174.868 188.518  0.00  0.00    -0.379 OA
BRANCH 226 227
ATOM    227  C   UNL     1     141.327 174.058 189.662  0.00  0.00    +0.037 C 
ATOM    228  H   UNL     1     142.401 173.861 189.723  0.00  0.00    +0.052 HD
ATOM    229  H   UNL     1     141.018 174.577 190.574  0.00  0.00    +0.052 HD
ATOM    230  H   UNL     1     140.802 173.102 189.579  0.00  0.00    +0.052 HD
ENDBRANCH 226 227
ENDBRANCH  16 226
TORSDOF 40
ENDMDL
MODEL 4
REMARK VINA RESULT:      -5.4      6.423     12.566
REMARK  Name = Swinholide A_conf3
REMARK  40 active torsions:
REMARK  status: ('A' for Active; 'I' for Inactive)
REMARK    1  A    between atoms: C_1  and  C_2
REMARK    2  A    between atoms: C_4  and  C_10
REMARK    3  A    between atoms: C_6  and  O_8
REMARK    4  A    between atoms: O_8  and  C_9
REMARK    5  A    between atoms: C_10  and  C_11
REMARK    6  A    between atoms: C_11  and  C_12
REMARK    7  A    between atoms: C_12  and  C_13
REMARK    8  A    between atoms: C_12  and  C_98
REMARK    9  A    between atoms: C_13  and  O_14
REMARK   10  A    between atoms: C_13  and  C_15
REMARK   11  A    between atoms: C_15  and  C_16
REMARK   12  A    between atoms: C_15  and  C_97
REMARK   13  A    between atoms: C_22  and  C_96
REMARK   14  A    between atoms: C_25  and  O_95
REMARK   15  A    between atoms: C_31  and  O_90
REMARK   16  A    between atoms: C_32  and  C_89
REMARK   17  A    between atoms: C_33  and  O_88
REMARK   18  A    between atoms: C_35  and  O_87
REMARK   19  A    between atoms: C_36  and  C_86
REMARK   20  A    between atoms: C_37  and  C_69
REMARK   21  A    between atoms: C_43  and  C_68
REMARK   22  A    between atoms: C_46  and  O_67
REMARK   23  A    between atoms: C_52  and  O_62
REMARK   24  A    between atoms: C_53  and  C_61
REMARK   25  A    between atoms: C_54  and  O_60
REMARK   26  A    between atoms: C_56  and  O_59
REMARK   27  A    between atoms: C_57  and  C_58
REMARK   28  A    between atoms: O_62  and  C_63
REMARK   29  A    between atoms: C_69  and  C_70
REMARK   30  A    between atoms: C_69  and  C_85
REMARK   31  A    between atoms: C_70  and  O_71
REMARK   32  A    between atoms: C_70  and  C_72
REMARK   33  A    between atoms: C_72  and  C_73
REMARK   34  A    between atoms: C_72  and  C_84
REMARK   35  A    between atoms: C_73  and  C_74
REMARK   36  A    between atoms: C_74  and  C_75
REMARK   37  A    between atoms: C_77  and  C_83
REMARK   38  A    between atoms: C_79  and  O_81
REMARK   39  A    between atoms: O_81  and  C_82
REMARK   40  A    between atoms: O_90  and  C_91
REMARK                            x       y       z     vdW  Elec       q    Type
REMARK                         _______ _______ _______ _____ _____    ______ ____
ROOT
ATOM      1  C   UNL     1     145.894 171.176 190.191  0.00  0.00    +0.113 C 
ATOM      2  O   UNL     1     145.132 172.243 190.815  0.00  0.00    -0.458 OA
ATOM      3  C   UNL     1     143.814 171.963 191.001  0.00  0.00    +0.332 C 
ATOM      4  O   UNL     1     143.272 170.886 190.792  0.00  0.00    -0.246 OA
ATOM      5  C   UNL     1     143.022 173.104 191.468  0.00  0.00    +0.023 C 
ATOM      6  C   UNL     1     143.470 174.173 192.141  0.00  0.00    -0.052 C 
ATOM      7  C   UNL     1     142.555 175.184 192.663  0.00  0.00    -0.054 C 
ATOM      8  C   UNL     1     141.425 174.808 193.297  0.00  0.00    -0.079 C 
ATOM      9  C   UNL     1     140.320 175.670 193.830  0.00  0.00    -0.008 C 
ATOM     10  C   UNL     1     139.308 176.223 192.803  0.00  0.00    +0.061 C 
ATOM     11  C   UNL     1     139.178 175.496 191.458  0.00  0.00    +0.003 C 
ATOM     12  C   UNL     1     138.329 174.218 191.366  0.00  0.00    +0.080 C 
ATOM     13  O   UNL     1     138.463 173.819 189.986  0.00  0.00    -0.369 OA
ATOM     14  C   UNL     1     138.076 172.468 189.677  0.00  0.00    +0.065 C 
ATOM     15  C   UNL     1     136.552 172.312 189.828  0.00  0.00    +0.000 C 
ATOM     16  C   UNL     1     135.958 171.009 189.258  0.00  0.00    +0.066 C 
ATOM     17  C   UNL     1     134.403 171.069 189.302  0.00  0.00    +0.009 C 
ATOM     18  C   UNL     1     133.769 170.741 190.686  0.00  0.00    +0.063 C 
ATOM     19  C   UNL     1     132.531 171.610 191.014  0.00  0.00    -0.000 C 
ATOM     20  C   UNL     1     132.881 173.109 191.155  0.00  0.00    +0.064 C 
ATOM     21  C   UNL     1     132.209 173.785 192.382  0.00  0.00    +0.020 C 
ATOM     22  C   UNL     1     133.028 174.987 192.977  0.00  0.00    +0.113 C 
ATOM     23  O   UNL     1     134.065 175.424 192.080  0.00  0.00    -0.458 OA
ATOM     24  C   UNL     1     133.720 176.336 191.139  0.00  0.00    +0.332 C 
ATOM     25  O   UNL     1     132.692 176.993 191.099  0.00  0.00    -0.246 OA
ATOM     26  C   UNL     1     134.809 176.383 190.142  0.00  0.00    +0.023 C 
ATOM     27  C   UNL     1     134.697 177.170 189.061  0.00  0.00    -0.052 C 
ATOM     28  C   UNL     1     135.684 177.262 187.993  0.00  0.00    -0.054 C 
ATOM     29  C   UNL     1     136.273 176.162 187.482  0.00  0.00    -0.079 C 
ATOM     30  C   UNL     1     137.256 176.105 186.342  0.00  0.00    -0.008 C 
ATOM     31  C   UNL     1     138.716 176.181 186.830  0.00  0.00    +0.061 C 
ATOM     32  C   UNL     1     139.426 174.820 186.747  0.00  0.00    +0.003 C 
ATOM     33  C   UNL     1     140.771 174.794 187.494  0.00  0.00    +0.080 C 
ATOM     34  O   UNL     1     141.152 173.434 187.790  0.00  0.00    -0.369 OA
ATOM     35  C   UNL     1     141.852 172.757 186.727  0.00  0.00    +0.065 C 
ATOM     36  C   UNL     1     142.082 171.309 187.207  0.00  0.00    +0.000 C 
ATOM     37  C   UNL     1     142.884 170.416 186.236  0.00  0.00    +0.066 C 
ATOM     38  C   UNL     1     143.123 168.986 186.806  0.00  0.00    +0.009 C 
ATOM     39  C   UNL     1     143.964 168.905 188.111  0.00  0.00    +0.063 C 
ATOM     40  C   UNL     1     145.506 168.880 188.050  0.00  0.00    -0.000 C 
ATOM     41  C   UNL     1     146.268 170.189 187.794  0.00  0.00    +0.064 C 
ATOM     42  C   UNL     1     145.848 171.407 188.648  0.00  0.00    +0.020 C 
ATOM     43  C   UNL     1     143.175 173.490 186.459  0.00  0.00    -0.008 C 
ATOM     44  C   UNL     1     142.976 174.962 186.306  0.00  0.00    -0.083 C 
ATOM     45  C   UNL     1     141.874 175.547 186.787  0.00  0.00    -0.059 C 
ATOM     46  C   UNL     1     138.933 171.488 190.490  0.00  0.00    -0.008 C 
ATOM     47  C   UNL     1     138.987 171.863 191.936  0.00  0.00    -0.083 C 
ATOM     48  C   UNL     1     138.697 173.114 192.321  0.00  0.00    -0.059 C 
ATOM     49  H   UNL     1     145.373 170.231 190.380  0.00  0.00    +0.074 HD
ATOM     50  H   UNL     1     141.960 172.972 191.275  0.00  0.00    +0.069 HD
ATOM     51  H   UNL     1     144.531 174.318 192.329  0.00  0.00    +0.062 HD
ATOM     52  H   UNL     1     141.247 173.743 193.447  0.00  0.00    +0.058 HD
ATOM     53  H   UNL     1     140.746 176.510 194.395  0.00  0.00    +0.033 HD
ATOM     54  H   UNL     1     139.785 175.089 194.592  0.00  0.00    +0.033 HD
ATOM     55  H   UNL     1     139.628 177.248 192.571  0.00  0.00    +0.060 HD
ATOM     56  H   UNL     1     140.167 175.319 191.016  0.00  0.00    +0.032 HD
ATOM     57  H   UNL     1     138.712 176.207 190.757  0.00  0.00    +0.032 HD
ATOM     58  H   UNL     1     137.280 174.484 191.534  0.00  0.00    +0.064 HD
ATOM     59  H   UNL     1     138.330 172.329 188.621  0.00  0.00    +0.060 HD
ATOM     60  H   UNL     1     136.097 173.167 189.309  0.00  0.00    +0.032 HD
ATOM     61  H   UNL     1     136.272 172.429 190.875  0.00  0.00    +0.032 HD
ATOM     62  H   UNL     1     136.315 170.141 189.826  0.00  0.00    +0.060 HD
ATOM     63  H   UNL     1     134.121 172.085 189.005  0.00  0.00    +0.035 HD
ATOM     64  H   UNL     1     133.447 169.692 190.678  0.00  0.00    +0.060 HD
ATOM     65  H   UNL     1     132.128 171.237 191.963  0.00  0.00    +0.032 HD
ATOM     66  H   UNL     1     131.762 171.461 190.247  0.00  0.00    +0.032 HD
ATOM     67  H   UNL     1     133.962 173.196 191.250  0.00  0.00    +0.060 HD
ATOM     68  H   UNL     1     132.118 173.031 193.171  0.00  0.00    +0.036 HD
ATOM     69  H   UNL     1     132.353 175.839 193.141  0.00  0.00    +0.074 HD
ATOM     70  H   UNL     1     135.656 175.732 190.305  0.00  0.00    +0.069 HD
ATOM     71  H   UNL     1     133.815 177.801 188.947  0.00  0.00    +0.062 HD
ATOM     72  H   UNL     1     136.022 175.183 187.892  0.00  0.00    +0.058 HD
ATOM     73  H   UNL     1     137.080 175.172 185.789  0.00  0.00    +0.033 HD
ATOM     74  H   UNL     1     137.040 176.900 185.620  0.00  0.00    +0.033 HD
ATOM     75  H   UNL     1     138.758 176.553 187.860  0.00  0.00    +0.060 HD
ATOM     76  H   UNL     1     138.777 174.046 187.169  0.00  0.00    +0.032 HD
ATOM     77  H   UNL     1     139.586 174.547 185.695  0.00  0.00    +0.032 HD
ATOM     78  H   UNL     1     140.632 175.262 188.476  0.00  0.00    +0.064 HD
ATOM     79  H   UNL     1     141.218 172.751 185.831  0.00  0.00    +0.060 HD
ATOM     80  H   UNL     1     142.559 171.353 188.189  0.00  0.00    +0.032 HD
ATOM     81  H   UNL     1     141.095 170.859 187.384  0.00  0.00    +0.032 HD
ATOM     82  H   UNL     1     143.840 170.888 186.006  0.00  0.00    +0.060 HD
ATOM     83  H   UNL     1     142.123 168.596 187.051  0.00  0.00    +0.035 HD
ATOM     84  H   UNL     1     143.646 169.676 188.805  0.00  0.00    +0.060 HD
ATOM     85  H   UNL     1     145.820 168.136 187.307  0.00  0.00    +0.032 HD
ATOM     86  H   UNL     1     145.869 168.472 189.004  0.00  0.00    +0.032 HD
ATOM     87  H   UNL     1     147.333 169.986 187.965  0.00  0.00    +0.060 HD
ATOM     88  H   UNL     1     144.798 171.601 188.409  0.00  0.00    +0.036 HD
ATOM     89  H   UNL     1     143.658 173.101 185.558  0.00  0.00    +0.033 HD
ATOM     90  H   UNL     1     143.859 173.348 187.298  0.00  0.00    +0.033 HD
ATOM     91  H   UNL     1     143.749 175.550 185.820  0.00  0.00    +0.057 HD
ATOM     92  H   UNL     1     141.748 176.619 186.666  0.00  0.00    +0.059 HD
ATOM     93  H   UNL     1     139.962 171.503 190.108  0.00  0.00    +0.033 HD
ATOM     94  H   UNL     1     138.564 170.466 190.379  0.00  0.00    +0.033 HD
ATOM     95  H   UNL     1     139.244 171.100 192.664  0.00  0.00    +0.057 HD
ATOM     96  H   UNL     1     138.663 173.345 193.380  0.00  0.00    +0.059 HD
ENDROOT
BRANCH  28  97
ATOM     97  C   UNL     1     135.923 178.668 187.512  0.00  0.00    -0.040 C 
ATOM     98  H   UNL     1     135.560 178.843 186.496  0.00  0.00    +0.028 HD
ATOM     99  H   UNL     1     135.428 179.390 188.172  0.00  0.00    +0.028 HD
ATOM    100  H   UNL     1     136.997 178.887 187.503  0.00  0.00    +0.028 HD
ENDBRANCH  28  97
BRANCH  21 101
ATOM    101  C   UNL     1     130.767 174.225 192.094  0.00  0.00    -0.057 C 
ATOM    102  H   UNL     1     130.214 174.441 193.013  0.00  0.00    +0.023 HD
ATOM    103  H   UNL     1     130.224 173.438 191.560  0.00  0.00    +0.023 HD
ATOM    104  H   UNL     1     130.748 175.121 191.463  0.00  0.00    +0.023 HD
ENDBRANCH  21 101
BRANCH  42 105
ATOM    105  C   UNL     1     146.551 172.691 188.179  0.00  0.00    -0.057 C 
ATOM    106  H   UNL     1     146.951 173.244 189.036  0.00  0.00    +0.023 HD
ATOM    107  H   UNL     1     147.394 172.476 187.513  0.00  0.00    +0.023 HD
ATOM    108  H   UNL     1     145.863 173.375 187.679  0.00  0.00    +0.023 HD
ENDBRANCH  42 105
BRANCH  17 109
ATOM    109  C   UNL     1     133.742 170.172 188.239  0.00  0.00    -0.058 C 
ATOM    110  H   UNL     1     132.739 169.864 188.547  0.00  0.00    +0.023 HD
ATOM    111  H   UNL     1     134.336 169.271 188.050  0.00  0.00    +0.023 HD
ATOM    112  H   UNL     1     133.655 170.698 187.282  0.00  0.00    +0.023 HD
ENDBRANCH  17 109
BRANCH  38 113
ATOM    113  C   UNL     1     143.654 168.013 185.741  0.00  0.00    -0.058 C 
ATOM    114  H   UNL     1     143.076 167.085 185.721  0.00  0.00    +0.023 HD
ATOM    115  H   UNL     1     143.617 168.463 184.742  0.00  0.00    +0.023 HD
ATOM    116  H   UNL     1     144.702 167.756 185.930  0.00  0.00    +0.023 HD
ENDBRANCH  38 113
BRANCH   7 117
ATOM    117  C   UNL     1     142.959 176.608 192.418  0.00  0.00    -0.040 C 
ATOM    118  H   UNL     1     143.939 176.643 191.936  0.00  0.00    +0.028 HD
ATOM    119  H   UNL     1     143.028 177.190 193.341  0.00  0.00    +0.028 HD
ATOM    120  H   UNL     1     142.236 177.115 191.770  0.00  0.00    +0.028 HD
ENDBRANCH   7 117
BRANCH   1 121
ATOM    121  C   UNL     1     147.270 170.977 190.895  0.00  0.00    +0.020 C 
ATOM    122  H   UNL     1     148.034 171.129 190.122  0.00  0.00    +0.036 HD
BRANCH 121 123
ATOM    123  C   UNL     1     147.607 171.974 192.001  0.00  0.00    -0.057 C 
ATOM    124  H   UNL     1     147.045 171.776 192.916  0.00  0.00    +0.023 HD
ATOM    125  H   UNL     1     148.677 171.954 192.231  0.00  0.00    +0.023 HD
ATOM    126  H   UNL     1     147.414 172.999 191.684  0.00  0.00    +0.023 HD
ENDBRANCH 121 123
BRANCH 121 127
ATOM    127  C   UNL     1     147.424 169.500 191.388  0.00  0.00    +0.064 C 
ATOM    128  H   UNL     1     147.575 169.546 192.474  0.00  0.00    +0.060 HD
BRANCH 127 129
ATOM    129  C   UNL     1     148.566 168.645 190.744  0.00  0.00    -0.017 C 
ATOM    130  H   UNL     1     148.740 168.999 189.726  0.00  0.00    +0.032 HD
BRANCH 129 131
ATOM    131  C   UNL     1     149.870 168.895 191.520  0.00  0.00    -0.060 C 
ATOM    132  H   UNL     1     150.056 169.967 191.651  0.00  0.00    +0.023 HD
ATOM    133  H   UNL     1     150.729 168.467 190.991  0.00  0.00    +0.023 HD
ATOM    134  H   UNL     1     149.842 168.429 192.510  0.00  0.00    +0.023 HD
ENDBRANCH 129 131
BRANCH 129 135
ATOM    135  C   UNL     1     148.268 167.127 190.704  0.00  0.00    -0.046 C 
ATOM    136  H   UNL     1     148.473 166.725 189.708  0.00  0.00    +0.027 HD
ATOM    137  H   UNL     1     147.195 166.962 190.875  0.00  0.00    +0.027 HD
BRANCH 135 138
ATOM    138  C   UNL     1     149.028 166.260 191.724  0.00  0.00    -0.026 C 
ATOM    139  H   UNL     1     149.907 166.843 192.033  0.00  0.00    +0.029 HD
ATOM    140  H   UNL     1     149.416 165.358 191.237  0.00  0.00    +0.029 HD
BRANCH 138 143
ATOM    141  C   UNL     1     146.087 166.339 194.018  0.00  0.00    +0.059 C 
ATOM    142  O   UNL     1     146.886 166.326 192.828  0.00  0.00    -0.373 OA
ATOM    143  C   UNL     1     148.233 165.877 192.983  0.00  0.00    +0.061 C 
ATOM    144  C   UNL     1     148.879 166.494 194.226  0.00  0.00    -0.000 C 
ATOM    145  C   UNL     1     148.095 166.141 195.497  0.00  0.00    +0.063 C 
ATOM    146  C   UNL     1     146.716 165.570 195.173  0.00  0.00    -0.000 C 
ATOM    147  H   UNL     1     145.964 167.390 194.304  0.00  0.00    +0.059 HD
ATOM    148  H   UNL     1     148.228 164.785 193.075  0.00  0.00    +0.060 HD
ATOM    149  H   UNL     1     149.926 166.183 194.297  0.00  0.00    +0.032 HD
ATOM    150  H   UNL     1     148.864 167.586 194.120  0.00  0.00    +0.032 HD
ATOM    151  H   UNL     1     147.964 167.046 196.106  0.00  0.00    +0.060 HD
ATOM    152  H   UNL     1     146.081 165.610 196.067  0.00  0.00    +0.032 HD
ATOM    153  H   UNL     1     146.803 164.508 194.916  0.00  0.00    +0.032 HD
BRANCH 141 154
ATOM    154  C   UNL     1     144.717 165.776 193.664  0.00  0.00    -0.039 C 
ATOM    155  H   UNL     1     144.581 164.773 194.081  0.00  0.00    +0.025 HD
ATOM    156  H   UNL     1     143.923 166.424 194.048  0.00  0.00    +0.025 HD
ATOM    157  H   UNL     1     144.585 165.722 192.579  0.00  0.00    +0.025 HD
ENDBRANCH 141 154
BRANCH 145 158
ATOM    158  O   UNL     1     148.791 165.158 196.274  0.00  0.00    -0.380 OA
BRANCH 158 159
ATOM    159  C   UNL     1     150.205 165.312 196.238  0.00  0.00    +0.037 C 
ATOM    160  H   UNL     1     150.583 164.776 195.362  0.00  0.00    +0.052 HD
ATOM    161  H   UNL     1     150.490 166.364 196.152  0.00  0.00    +0.052 HD
ATOM    162  H   UNL     1     150.655 164.874 197.135  0.00  0.00    +0.052 HD
ENDBRANCH 158 159
ENDBRANCH 145 158
ENDBRANCH 138 143
ENDBRANCH 135 138
ENDBRANCH 129 135
ENDBRANCH 127 129
BRANCH 127 163
ATOM    163  O   UNL     1     146.158 168.851 191.211  0.00  0.00    -0.391 OA
ATOM    164  H   UNL     1     146.312 168.070 190.651  0.00  0.00    +0.210 HD
ENDBRANCH 127 163
ENDBRANCH 121 127
ENDBRANCH   1 121
BRANCH  41 165
ATOM    165  O   UNL     1     146.138 170.505 186.405  0.00  0.00    -0.391 OA
ATOM    166  H   UNL     1     145.841 171.428 186.344  0.00  0.00    +0.210 HD
ENDBRANCH  41 165
BRANCH  39 167
ATOM    167  O   UNL     1     143.606 167.660 188.757  0.00  0.00    -0.391 OA
ATOM    168  H   UNL     1     144.236 166.991 188.438  0.00  0.00    +0.210 HD
ENDBRANCH  39 167
BRANCH  31 169
ATOM    169  O   UNL     1     139.412 177.134 186.020  0.00  0.00    -0.391 OA
ATOM    170  H   UNL     1     139.970 177.667 186.616  0.00  0.00    +0.210 HD
ENDBRANCH  31 169
BRANCH  22 171
ATOM    171  C   UNL     1     133.659 174.666 194.386  0.00  0.00    +0.020 C 
ATOM    172  H   UNL     1     133.138 175.310 195.107  0.00  0.00    +0.036 HD
BRANCH 171 173
ATOM    173  C   UNL     1     133.328 173.195 194.712  0.00  0.00    -0.057 C 
ATOM    174  H   UNL     1     132.251 173.041 194.838  0.00  0.00    +0.023 HD
ATOM    175  H   UNL     1     133.669 172.518 193.922  0.00  0.00    +0.023 HD
ATOM    176  H   UNL     1     133.770 172.868 195.653  0.00  0.00    +0.023 HD
ENDBRANCH 171 173
BRANCH 171 177
ATOM    177  C   UNL     1     135.189 174.978 194.508  0.00  0.00    +0.064 C 
ATOM    178  H   UNL     1     135.701 174.548 193.637  0.00  0.00    +0.060 HD
BRANCH 177 179
ATOM    179  O   UNL     1     135.362 176.393 194.450  0.00  0.00    -0.391 OA
ATOM    180  H   UNL     1     134.717 176.767 193.815  0.00  0.00    +0.210 HD
ENDBRANCH 177 179
BRANCH 177 181
ATOM    181  C   UNL     1     135.938 174.509 195.797  0.00  0.00    -0.017 C 
ATOM    182  H   UNL     1     135.322 173.743 196.287  0.00  0.00    +0.032 HD
BRANCH 181 183
ATOM    183  C   UNL     1     137.313 173.895 195.540  0.00  0.00    -0.060 C 
ATOM    184  H   UNL     1     138.095 174.504 196.000  0.00  0.00    +0.023 HD
ATOM    185  H   UNL     1     137.571 173.879 194.477  0.00  0.00    +0.023 HD
ATOM    186  H   UNL     1     137.371 172.870 195.917  0.00  0.00    +0.023 HD
ENDBRANCH 181 183
BRANCH 181 187
ATOM    187  C   UNL     1     136.028 175.704 196.795  0.00  0.00    -0.046 C 
ATOM    188  H   UNL     1     135.332 175.527 197.624  0.00  0.00    +0.027 HD
ATOM    189  H   UNL     1     135.689 176.620 196.293  0.00  0.00    +0.027 HD
BRANCH 187 190
ATOM    190  C   UNL     1     137.424 175.949 197.385  0.00  0.00    -0.026 C 
ATOM    191  H   UNL     1     137.405 175.781 198.468  0.00  0.00    +0.029 HD
ATOM    192  H   UNL     1     138.117 175.223 196.942  0.00  0.00    +0.029 HD
BRANCH 190 193
ATOM    193  C   UNL     1     137.958 177.361 197.099  0.00  0.00    +0.061 C 
ATOM    194  O   UNL     1     137.378 177.827 195.876  0.00  0.00    -0.373 OA
ATOM    195  C   UNL     1     137.778 179.148 195.500  0.00  0.00    +0.059 C 
ATOM    196  C   UNL     1     139.302 179.251 195.378  0.00  0.00    -0.000 C 
ATOM    197  C   UNL     1     140.044 178.698 196.596  0.00  0.00    +0.063 C 
ATOM    198  C   UNL     1     139.483 177.327 196.975  0.00  0.00    -0.000 C 
ATOM    199  H   UNL     1     137.653 178.014 197.925  0.00  0.00    +0.060 HD
ATOM    200  H   UNL     1     137.363 179.306 194.496  0.00  0.00    +0.059 HD
ATOM    201  H   UNL     1     139.589 180.284 195.164  0.00  0.00    +0.032 HD
ATOM    202  H   UNL     1     139.606 178.648 194.511  0.00  0.00    +0.032 HD
ATOM    203  H   UNL     1     141.109 178.579 196.359  0.00  0.00    +0.060 HD
ATOM    204  H   UNL     1     139.925 176.988 197.919  0.00  0.00    +0.032 HD
ATOM    205  H   UNL     1     139.769 176.613 196.192  0.00  0.00    +0.032 HD
BRANCH 195 206
ATOM    206  C   UNL     1     137.146 180.213 196.395  0.00  0.00    -0.039 C 
ATOM    207  H   UNL     1     137.563 181.199 196.159  0.00  0.00    +0.025 HD
ATOM    208  H   UNL     1     137.338 179.998 197.450  0.00  0.00    +0.025 HD
ATOM    209  H   UNL     1     136.065 180.298 196.259  0.00  0.00    +0.025 HD
ENDBRANCH 195 206
BRANCH 197 210
ATOM    210  O   UNL     1     139.918 179.557 197.733  0.00  0.00    -0.380 OA
BRANCH 210 211
ATOM    211  C   UNL     1     140.858 180.623 197.745  0.00  0.00    +0.037 C 
ATOM    212  H   UNL     1     141.853 180.198 197.899  0.00  0.00    +0.052 HD
ATOM    213  H   UNL     1     140.850 181.149 196.786  0.00  0.00    +0.052 HD
ATOM    214  H   UNL     1     140.653 181.323 198.559  0.00  0.00    +0.052 HD
ENDBRANCH 210 211
ENDBRANCH 197 210
ENDBRANCH 190 193
ENDBRANCH 187 190
ENDBRANCH 181 187
ENDBRANCH 177 181
ENDBRANCH 171 177
ENDBRANCH  22 171
BRANCH  20 215
ATOM    215  O   UNL     1     132.550 173.783 189.939  0.00  0.00    -0.391 OA
ATOM    216  H   UNL     1     132.675 173.175 189.192  0.00  0.00    +0.210 HD
ENDBRANCH  20 215
BRANCH  18 217
ATOM    217  O   UNL     1     134.690 170.848 191.775  0.00  0.00    -0.391 OA
ATOM    218  H   UNL     1     135.239 171.637 191.605  0.00  0.00    +0.210 HD
ENDBRANCH  18 217
BRANCH  10 219
ATOM    219  O   UNL     1     138.035 176.339 193.442  0.00  0.00    -0.391 OA
ATOM    220  H   UNL     1     138.050 177.125 194.015  0.00  0.00    +0.210 HD
ENDBRANCH  10 219
BRANCH  37 221
ATOM    221  O   UNL     1     142.080 170.307 185.046  0.00  0.00    -0.379 OA
BRANCH 221 222
ATOM    222  C   UNL     1     142.721 170.813 183.882  0.00  0.00    +0.037 C 
ATOM    223  H   UNL     1     142.047 171.532 183.408  0.00  0.00    +0.052 HD
ATOM    224  H   UNL     1     143.641 171.335 184.156  0.00  0.00    +0.052 HD
ATOM    225  H   UNL     1     142.940 170.016 183.165  0.00  0.00    +0.052 HD
ENDBRANCH 221 222
ENDBRANCH  37 221
BRANCH  16 226
ATOM    226  O   UNL     1     136.381 170.924 187.886  0.00  0.00    -0.379 OA
BRANCH 226 227
ATOM    227  C   UNL     1     137.182 169.781 187.612  0.00  0.00    +0.037 C 
ATOM    228  H   UNL     1     137.608 169.890 186.611  0.00  0.00    +0.052 HD
ATOM    229  H   UNL     1     138.002 169.704 188.332  0.00  0.00    +0.052 HD
ATOM    230  H   UNL     1     136.577 168.869 187.636  0.00  0.00    +0.052 HD
ENDBRANCH 226 227
ENDBRANCH  16 226
TORSDOF 40
ENDMDL
MODEL 5
REMARK VINA RESULT:      -5.4      6.122     10.518
REMARK  Name = Swinholide A_conf3
REMARK  40 active torsions:
REMARK  status: ('A' for Active; 'I' for Inactive)
REMARK    1  A    between atoms: C_1  and  C_2
REMARK    2  A    between atoms: C_4  and  C_10
REMARK    3  A    between atoms: C_6  and  O_8
REMARK    4  A    between atoms: O_8  and  C_9
REMARK    5  A    between atoms: C_10  and  C_11
REMARK    6  A    between atoms: C_11  and  C_12
REMARK    7  A    between atoms: C_12  and  C_13
REMARK    8  A    between atoms: C_12  and  C_98
REMARK    9  A    between atoms: C_13  and  O_14
REMARK   10  A    between atoms: C_13  and  C_15
REMARK   11  A    between atoms: C_15  and  C_16
REMARK   12  A    between atoms: C_15  and  C_97
REMARK   13  A    between atoms: C_22  and  C_96
REMARK   14  A    between atoms: C_25  and  O_95
REMARK   15  A    between atoms: C_31  and  O_90
REMARK   16  A    between atoms: C_32  and  C_89
REMARK   17  A    between atoms: C_33  and  O_88
REMARK   18  A    between atoms: C_35  and  O_87
REMARK   19  A    between atoms: C_36  and  C_86
REMARK   20  A    between atoms: C_37  and  C_69
REMARK   21  A    between atoms: C_43  and  C_68
REMARK   22  A    between atoms: C_46  and  O_67
REMARK   23  A    between atoms: C_52  and  O_62
REMARK   24  A    between atoms: C_53  and  C_61
REMARK   25  A    between atoms: C_54  and  O_60
REMARK   26  A    between atoms: C_56  and  O_59
REMARK   27  A    between atoms: C_57  and  C_58
REMARK   28  A    between atoms: O_62  and  C_63
REMARK   29  A    between atoms: C_69  and  C_70
REMARK   30  A    between atoms: C_69  and  C_85
REMARK   31  A    between atoms: C_70  and  O_71
REMARK   32  A    between atoms: C_70  and  C_72
REMARK   33  A    between atoms: C_72  and  C_73
REMARK   34  A    between atoms: C_72  and  C_84
REMARK   35  A    between atoms: C_73  and  C_74
REMARK   36  A    between atoms: C_74  and  C_75
REMARK   37  A    between atoms: C_77  and  C_83
REMARK   38  A    between atoms: C_79  and  O_81
REMARK   39  A    between atoms: O_81  and  C_82
REMARK   40  A    between atoms: O_90  and  C_91
REMARK                            x       y       z     vdW  Elec       q    Type
REMARK                         _______ _______ _______ _____ _____    ______ ____
ROOT
ATOM      1  C   UNL     1     146.850 167.148 187.209  0.00  0.00    +0.113 C 
ATOM      2  O   UNL     1     146.863 168.006 186.038  0.00  0.00    -0.458 OA
ATOM      3  C   UNL     1     146.642 169.322 186.298  0.00  0.00    +0.332 C 
ATOM      4  O   UNL     1     146.548 169.830 187.407  0.00  0.00    -0.246 OA
ATOM      5  C   UNL     1     146.483 170.149 185.098  0.00  0.00    +0.023 C 
ATOM      6  C   UNL     1     146.963 169.890 183.873  0.00  0.00    -0.052 C 
ATOM      7  C   UNL     1     146.844 170.859 182.787  0.00  0.00    -0.054 C 
ATOM      8  C   UNL     1     147.118 172.160 183.013  0.00  0.00    -0.079 C 
ATOM      9  C   UNL     1     146.982 173.321 182.073  0.00  0.00    -0.008 C 
ATOM     10  C   UNL     1     145.558 173.877 181.850  0.00  0.00    +0.061 C 
ATOM     11  C   UNL     1     144.496 173.583 182.917  0.00  0.00    +0.003 C 
ATOM     12  C   UNL     1     144.453 174.432 184.199  0.00  0.00    +0.080 C 
ATOM     13  O   UNL     1     143.365 173.856 184.952  0.00  0.00    -0.369 OA
ATOM     14  C   UNL     1     143.309 174.203 186.347  0.00  0.00    +0.065 C 
ATOM     15  C   UNL     1     142.952 175.691 186.503  0.00  0.00    +0.000 C 
ATOM     16  C   UNL     1     142.575 176.138 187.930  0.00  0.00    +0.066 C 
ATOM     17  C   UNL     1     142.054 177.606 187.909  0.00  0.00    +0.009 C 
ATOM     18  C   UNL     1     143.162 178.698 187.869  0.00  0.00    +0.063 C 
ATOM     19  C   UNL     1     142.795 179.913 186.983  0.00  0.00    -0.000 C 
ATOM     20  C   UNL     1     142.648 179.533 185.491  0.00  0.00    +0.064 C 
ATOM     21  C   UNL     1     143.337 180.540 184.530  0.00  0.00    +0.020 C 
ATOM     22  C   UNL     1     143.841 179.899 183.187  0.00  0.00    +0.113 C 
ATOM     23  O   UNL     1     143.283 178.589 182.977  0.00  0.00    -0.458 OA
ATOM     24  C   UNL     1     142.076 178.526 182.365  0.00  0.00    +0.332 C 
ATOM     25  O   UNL     1     141.507 179.431 181.775  0.00  0.00    -0.246 OA
ATOM     26  C   UNL     1     141.548 177.160 182.556  0.00  0.00    +0.023 C 
ATOM     27  C   UNL     1     140.330 176.838 182.095  0.00  0.00    -0.052 C 
ATOM     28  C   UNL     1     139.692 175.540 182.264  0.00  0.00    -0.054 C 
ATOM     29  C   UNL     1     139.730 174.886 183.443  0.00  0.00    -0.079 C 
ATOM     30  C   UNL     1     139.065 173.575 183.775  0.00  0.00    -0.008 C 
ATOM     31  C   UNL     1     139.994 172.372 183.525  0.00  0.00    +0.061 C 
ATOM     32  C   UNL     1     140.528 171.770 184.835  0.00  0.00    +0.003 C 
ATOM     33  C   UNL     1     141.678 170.770 184.616  0.00  0.00    +0.080 C 
ATOM     34  O   UNL     1     142.435 170.607 185.833  0.00  0.00    -0.369 OA
ATOM     35  C   UNL     1     141.904 169.630 186.750  0.00  0.00    +0.065 C 
ATOM     36  C   UNL     1     142.798 169.677 188.007  0.00  0.00    +0.000 C 
ATOM     37  C   UNL     1     142.442 168.651 189.103  0.00  0.00    +0.066 C 
ATOM     38  C   UNL     1     143.416 168.720 190.319  0.00  0.00    +0.009 C 
ATOM     39  C   UNL     1     144.904 168.389 190.017  0.00  0.00    +0.063 C 
ATOM     40  C   UNL     1     145.396 166.926 190.010  0.00  0.00    -0.000 C 
ATOM     41  C   UNL     1     145.088 166.037 188.796  0.00  0.00    +0.064 C 
ATOM     42  C   UNL     1     145.387 166.643 187.406  0.00  0.00    +0.020 C 
ATOM     43  C   UNL     1     141.933 168.249 186.077  0.00  0.00    -0.008 C 
ATOM     44  C   UNL     1     141.337 168.284 184.708  0.00  0.00    -0.083 C 
ATOM     45  C   UNL     1     141.229 169.444 184.049  0.00  0.00    -0.059 C 
ATOM     46  C   UNL     1     144.598 173.747 187.044  0.00  0.00    -0.008 C 
ATOM     47  C   UNL     1     145.817 174.170 186.290  0.00  0.00    -0.083 C 
ATOM     48  C   UNL     1     145.732 174.491 184.991  0.00  0.00    -0.059 C 
ATOM     49  H   UNL     1     147.087 167.764 188.084  0.00  0.00    +0.074 HD
ATOM     50  H   UNL     1     145.973 171.085 185.310  0.00  0.00    +0.069 HD
ATOM     51  H   UNL     1     147.465 168.951 183.650  0.00  0.00    +0.062 HD
ATOM     52  H   UNL     1     147.471 172.450 184.003  0.00  0.00    +0.058 HD
ATOM     53  H   UNL     1     147.417 173.062 181.099  0.00  0.00    +0.033 HD
ATOM     54  H   UNL     1     147.633 174.124 182.443  0.00  0.00    +0.033 HD
ATOM     55  H   UNL     1     145.192 173.429 180.917  0.00  0.00    +0.060 HD
ATOM     56  H   UNL     1     144.492 172.516 183.177  0.00  0.00    +0.032 HD
ATOM     57  H   UNL     1     143.516 173.730 182.438  0.00  0.00    +0.032 HD
ATOM     58  H   UNL     1     144.167 175.454 183.930  0.00  0.00    +0.064 HD
ATOM     59  H   UNL     1     142.486 173.610 186.759  0.00  0.00    +0.060 HD
ATOM     60  H   UNL     1     142.101 175.881 185.836  0.00  0.00    +0.032 HD
ATOM     61  H   UNL     1     143.764 176.308 186.117  0.00  0.00    +0.032 HD
ATOM     62  H   UNL     1     143.440 176.058 188.601  0.00  0.00    +0.060 HD
ATOM     63  H   UNL     1     141.420 177.699 187.020  0.00  0.00    +0.035 HD
ATOM     64  H   UNL     1     143.319 179.067 188.891  0.00  0.00    +0.060 HD
ATOM     65  H   UNL     1     143.605 180.642 187.098  0.00  0.00    +0.032 HD
ATOM     66  H   UNL     1     141.875 180.377 187.358  0.00  0.00    +0.032 HD
ATOM     67  H   UNL     1     143.089 178.548 185.349  0.00  0.00    +0.060 HD
ATOM     68  H   UNL     1     144.213 180.948 185.045  0.00  0.00    +0.036 HD
ATOM     69  H   UNL     1     143.527 180.530 182.344  0.00  0.00    +0.074 HD
ATOM     70  H   UNL     1     142.164 176.466 183.112  0.00  0.00    +0.069 HD
ATOM     71  H   UNL     1     139.753 177.583 181.545  0.00  0.00    +0.062 HD
ATOM     72  H   UNL     1     140.269 175.327 184.281  0.00  0.00    +0.058 HD
ATOM     73  H   UNL     1     138.752 173.612 184.828  0.00  0.00    +0.033 HD
ATOM     74  H   UNL     1     138.130 173.475 183.212  0.00  0.00    +0.033 HD
ATOM     75  H   UNL     1     140.837 172.663 182.887  0.00  0.00    +0.060 HD
ATOM     76  H   UNL     1     140.884 172.574 185.486  0.00  0.00    +0.032 HD
ATOM     77  H   UNL     1     139.711 171.275 185.377  0.00  0.00    +0.032 HD
ATOM     78  H   UNL     1     142.388 171.209 183.905  0.00  0.00    +0.064 HD
ATOM     79  H   UNL     1     140.878 169.914 187.018  0.00  0.00    +0.060 HD
ATOM     80  H   UNL     1     143.836 169.566 187.684  0.00  0.00    +0.032 HD
ATOM     81  H   UNL     1     142.730 170.693 188.423  0.00  0.00    +0.032 HD
ATOM     82  H   UNL     1     142.446 167.645 188.682  0.00  0.00    +0.060 HD
ATOM     83  H   UNL     1     143.388 169.766 190.659  0.00  0.00    +0.035 HD
ATOM     84  H   UNL     1     145.213 168.875 189.097  0.00  0.00    +0.060 HD
ATOM     85  H   UNL     1     145.035 166.425 190.917  0.00  0.00    +0.032 HD
ATOM     86  H   UNL     1     146.488 166.943 190.133  0.00  0.00    +0.032 HD
ATOM     87  H   UNL     1     145.668 165.112 188.912  0.00  0.00    +0.060 HD
ATOM     88  H   UNL     1     144.753 167.531 187.316  0.00  0.00    +0.036 HD
ATOM     89  H   UNL     1     141.395 167.512 186.680  0.00  0.00    +0.033 HD
ATOM     90  H   UNL     1     142.964 167.908 185.965  0.00  0.00    +0.033 HD
ATOM     91  H   UNL     1     141.016 167.354 184.249  0.00  0.00    +0.057 HD
ATOM     92  H   UNL     1     140.793 169.448 183.054  0.00  0.00    +0.059 HD
ATOM     93  H   UNL     1     144.611 172.651 187.101  0.00  0.00    +0.033 HD
ATOM     94  H   UNL     1     144.639 174.123 188.069  0.00  0.00    +0.033 HD
ATOM     95  H   UNL     1     146.763 174.233 186.819  0.00  0.00    +0.057 HD
ATOM     96  H   UNL     1     146.611 174.873 184.484  0.00  0.00    +0.059 HD
ENDROOT
BRANCH  28  97
ATOM     97  C   UNL     1     138.972 175.056 181.034  0.00  0.00    -0.040 C 
ATOM     98  H   UNL     1     139.291 175.564 180.120  0.00  0.00    +0.028 HD
ATOM     99  H   UNL     1     139.134 173.982 180.891  0.00  0.00    +0.028 HD
ATOM    100  H   UNL     1     137.895 175.234 181.132  0.00  0.00    +0.028 HD
ENDBRANCH  28  97
BRANCH  21 101
ATOM    101  C   UNL     1     142.457 181.762 184.229  0.00  0.00    -0.057 C 
ATOM    102  H   UNL     1     141.561 181.787 184.857  0.00  0.00    +0.023 HD
ATOM    103  H   UNL     1     142.126 181.750 183.185  0.00  0.00    +0.023 HD
ATOM    104  H   UNL     1     143.012 182.693 184.385  0.00  0.00    +0.023 HD
ENDBRANCH  21 101
BRANCH  42 105
ATOM    105  C   UNL     1     144.872 165.736 186.276  0.00  0.00    -0.057 C 
ATOM    106  H   UNL     1     144.597 164.752 186.670  0.00  0.00    +0.023 HD
ATOM    107  H   UNL     1     143.981 166.151 185.793  0.00  0.00    +0.023 HD
ATOM    108  H   UNL     1     145.637 165.550 185.520  0.00  0.00    +0.023 HD
ENDBRANCH  42 105
BRANCH  17 109
ATOM    109  C   UNL     1     141.105 177.917 189.080  0.00  0.00    -0.058 C 
ATOM    110  H   UNL     1     141.652 178.310 189.942  0.00  0.00    +0.023 HD
ATOM    111  H   UNL     1     140.556 177.025 189.398  0.00  0.00    +0.023 HD
ATOM    112  H   UNL     1     140.355 178.662 188.789  0.00  0.00    +0.023 HD
ENDBRANCH  17 109
BRANCH  38 113
ATOM    113  C   UNL     1     142.901 167.920 191.526  0.00  0.00    -0.058 C 
ATOM    114  H   UNL     1     142.184 168.499 192.115  0.00  0.00    +0.023 HD
ATOM    115  H   UNL     1     142.414 166.992 191.206  0.00  0.00    +0.023 HD
ATOM    116  H   UNL     1     143.725 167.630 192.186  0.00  0.00    +0.023 HD
ENDBRANCH  38 113
BRANCH   7 117
ATOM    117  C   UNL     1     146.390 170.301 181.471  0.00  0.00    -0.040 C 
ATOM    118  H   UNL     1     145.777 169.411 181.632  0.00  0.00    +0.028 HD
ATOM    119  H   UNL     1     147.225 170.011 180.827  0.00  0.00    +0.028 HD
ATOM    120  H   UNL     1     145.796 171.036 180.917  0.00  0.00    +0.028 HD
ENDBRANCH   7 117
BRANCH   1 121
ATOM    121  C   UNL     1     148.018 166.116 187.167  0.00  0.00    +0.020 C 
ATOM    122  H   UNL     1     147.632 165.199 187.630  0.00  0.00    +0.036 HD
BRANCH 121 123
ATOM    123  C   UNL     1     148.496 165.701 185.779  0.00  0.00    -0.057 C 
ATOM    124  H   UNL     1     149.001 164.733 185.792  0.00  0.00    +0.023 HD
ATOM    125  H   UNL     1     147.659 165.656 185.075  0.00  0.00    +0.023 HD
ATOM    126  H   UNL     1     149.172 166.445 185.353  0.00  0.00    +0.023 HD
ENDBRANCH 121 123
BRANCH 121 127
ATOM    127  C   UNL     1     149.207 166.599 188.063  0.00  0.00    +0.064 C 
ATOM    128  H   UNL     1     150.105 166.573 187.433  0.00  0.00    +0.060 HD
BRANCH 127 129
ATOM    129  C   UNL     1     149.480 165.803 189.383  0.00  0.00    -0.017 C 
ATOM    130  H   UNL     1     148.979 164.834 189.319  0.00  0.00    +0.032 HD
BRANCH 129 131
ATOM    131  C   UNL     1     150.987 165.508 189.481  0.00  0.00    -0.060 C 
ATOM    132  H   UNL     1     151.184 164.662 190.147  0.00  0.00    +0.023 HD
ATOM    133  H   UNL     1     151.531 166.377 189.869  0.00  0.00    +0.023 HD
ATOM    134  H   UNL     1     151.413 165.278 188.499  0.00  0.00    +0.023 HD
ENDBRANCH 129 131
BRANCH 129 135
ATOM    135  C   UNL     1     149.008 166.530 190.664  0.00  0.00    -0.046 C 
ATOM    136  H   UNL     1     147.943 166.350 190.833  0.00  0.00    +0.027 HD
ATOM    137  H   UNL     1     149.107 167.615 190.524  0.00  0.00    +0.027 HD
BRANCH 135 138
ATOM    138  C   UNL     1     149.755 166.171 191.961  0.00  0.00    -0.026 C 
ATOM    139  H   UNL     1     150.368 167.046 192.219  0.00  0.00    +0.029 HD
ATOM    140  H   UNL     1     150.458 165.350 191.776  0.00  0.00    +0.029 HD
BRANCH 138 143
ATOM    141  C   UNL     1     146.728 166.494 194.116  0.00  0.00    +0.059 C 
ATOM    142  O   UNL     1     147.580 166.436 192.966  0.00  0.00    -0.373 OA
ATOM    143  C   UNL     1     148.860 165.832 193.164  0.00  0.00    +0.061 C 
ATOM    144  C   UNL     1     149.505 166.326 194.461  0.00  0.00    -0.000 C 
ATOM    145  C   UNL     1     148.624 166.016 195.678  0.00  0.00    +0.063 C 
ATOM    146  C   UNL     1     147.208 165.617 195.266  0.00  0.00    -0.000 C 
ATOM    147  H   UNL     1     146.707 167.541 194.441  0.00  0.00    +0.059 HD
ATOM    148  H   UNL     1     148.729 164.745 193.208  0.00  0.00    +0.060 HD
ATOM    149  H   UNL     1     150.507 165.897 194.567  0.00  0.00    +0.032 HD
ATOM    150  H   UNL     1     149.617 167.416 194.401  0.00  0.00    +0.032 HD
ATOM    151  H   UNL     1     148.562 166.908 196.318  0.00  0.00    +0.060 HD
ATOM    152  H   UNL     1     146.537 165.695 196.130  0.00  0.00    +0.032 HD
ATOM    153  H   UNL     1     147.190 164.563 194.968  0.00  0.00    +0.032 HD
BRANCH 141 154
ATOM    154  C   UNL     1     145.324 166.103 193.676  0.00  0.00    -0.039 C 
ATOM    155  H   UNL     1     144.820 166.933 193.171  0.00  0.00    +0.025 HD
ATOM    156  H   UNL     1     145.358 165.249 192.992  0.00  0.00    +0.025 HD
ATOM    157  H   UNL     1     144.716 165.798 194.534  0.00  0.00    +0.025 HD
ENDBRANCH 141 154
BRANCH 145 158
ATOM    158  O   UNL     1     149.167 164.933 196.443  0.00  0.00    -0.380 OA
BRANCH 158 159
ATOM    159  C   UNL     1     150.579 164.815 196.327  0.00  0.00    +0.037 C 
ATOM    160  H   UNL     1     150.953 164.316 197.226  0.00  0.00    +0.052 HD
ATOM    161  H   UNL     1     150.860 164.218 195.456  0.00  0.00    +0.052 HD
ATOM    162  H   UNL     1     151.037 165.807 196.265  0.00  0.00    +0.052 HD
ENDBRANCH 158 159
ENDBRANCH 145 158
ENDBRANCH 138 143
ENDBRANCH 135 138
ENDBRANCH 129 135
ENDBRANCH 127 129
BRANCH 127 163
ATOM    163  O   UNL     1     148.992 167.986 188.356  0.00  0.00    -0.391 OA
ATOM    164  H   UNL     1     149.784 168.468 188.059  0.00  0.00    +0.210 HD
ENDBRANCH 127 163
ENDBRANCH 121 127
ENDBRANCH   1 121
BRANCH  41 165
ATOM    165  O   UNL     1     143.711 165.658 188.872  0.00  0.00    -0.391 OA
ATOM    166  H   UNL     1     143.250 166.337 189.391  0.00  0.00    +0.210 HD
ENDBRANCH  41 165
BRANCH  39 167
ATOM    167  O   UNL     1     145.688 169.030 191.051  0.00  0.00    -0.391 OA
ATOM    168  H   UNL     1     146.602 168.714 190.943  0.00  0.00    +0.210 HD
ENDBRANCH  39 167
BRANCH  31 169
ATOM    169  O   UNL     1     139.258 171.377 182.806  0.00  0.00    -0.391 OA
ATOM    170  H   UNL     1     138.747 171.839 182.115  0.00  0.00    +0.210 HD
ENDBRANCH  31 169
BRANCH  22 171
ATOM    171  C   UNL     1     145.413 179.816 183.095  0.00  0.00    +0.020 C 
ATOM    172  H   UNL     1     145.772 179.673 184.123  0.00  0.00    +0.036 HD
BRANCH 171 173
ATOM    173  C   UNL     1     145.757 178.554 182.275  0.00  0.00    -0.057 C 
ATOM    174  H   UNL     1     144.910 177.864 182.219  0.00  0.00    +0.023 HD
ATOM    175  H   UNL     1     146.048 178.805 181.249  0.00  0.00    +0.023 HD
ATOM    176  H   UNL     1     146.563 177.974 182.722  0.00  0.00    +0.023 HD
ENDBRANCH 171 173
BRANCH 171 177
ATOM    177  C   UNL     1     146.109 181.102 182.536  0.00  0.00    +0.064 C 
ATOM    178  H   UNL     1     146.943 180.794 181.893  0.00  0.00    +0.060 HD
BRANCH 177 179
ATOM    179  O   UNL     1     145.169 181.796 181.716  0.00  0.00    -0.391 OA
ATOM    180  H   UNL     1     145.264 181.485 180.792  0.00  0.00    +0.210 HD
ENDBRANCH 177 179
BRANCH 177 181
ATOM    181  C   UNL     1     146.641 182.157 183.559  0.00  0.00    -0.017 C 
ATOM    182  H   UNL     1     147.650 182.456 183.242  0.00  0.00    +0.032 HD
BRANCH 181 183
ATOM    183  C   UNL     1     145.798 183.427 183.653  0.00  0.00    -0.060 C 
ATOM    184  H   UNL     1     144.751 183.176 183.845  0.00  0.00    +0.023 HD
ATOM    185  H   UNL     1     145.774 183.984 182.712  0.00  0.00    +0.023 HD
ATOM    186  H   UNL     1     146.167 184.098 184.434  0.00  0.00    +0.023 HD
ENDBRANCH 181 183
BRANCH 181 187
ATOM    187  C   UNL     1     146.803 181.478 184.953  0.00  0.00    -0.046 C 
ATOM    188  H   UNL     1     147.138 180.443 184.807  0.00  0.00    +0.027 HD
ATOM    189  H   UNL     1     145.822 181.423 185.443  0.00  0.00    +0.027 HD
BRANCH 187 190
ATOM    190  C   UNL     1     147.794 182.172 185.899  0.00  0.00    -0.026 C 
ATOM    191  H   UNL     1     148.775 181.688 185.830  0.00  0.00    +0.029 HD
ATOM    192  H   UNL     1     147.907 183.215 185.573  0.00  0.00    +0.029 HD
BRANCH 190 193
ATOM    193  C   UNL     1     147.327 182.172 187.362  0.00  0.00    +0.061 C 
ATOM    194  O   UNL     1     147.870 181.018 188.013  0.00  0.00    -0.373 OA
ATOM    195  C   UNL     1     147.526 180.906 189.397  0.00  0.00    +0.059 C 
ATOM    196  C   UNL     1     146.007 180.895 189.591  0.00  0.00    -0.000 C 
ATOM    197  C   UNL     1     145.297 182.038 188.864  0.00  0.00    +0.063 C 
ATOM    198  C   UNL     1     145.798 182.135 187.423  0.00  0.00    -0.000 C 
ATOM    199  H   UNL     1     147.710 183.080 187.842  0.00  0.00    +0.060 HD
ATOM    200  H   UNL     1     147.899 179.923 189.713  0.00  0.00    +0.059 HD
ATOM    201  H   UNL     1     145.769 180.885 190.658  0.00  0.00    +0.032 HD
ATOM    202  H   UNL     1     145.625 179.956 189.168  0.00  0.00    +0.032 HD
ATOM    203  H   UNL     1     144.217 181.848 188.839  0.00  0.00    +0.060 HD
ATOM    204  H   UNL     1     145.386 183.030 186.940  0.00  0.00    +0.032 HD
ATOM    205  H   UNL     1     145.432 181.258 186.875  0.00  0.00    +0.032 HD
BRANCH 195 206
ATOM    206  C   UNL     1     148.262 181.935 190.253  0.00  0.00    -0.039 C 
ATOM    207  H   UNL     1     148.338 181.579 191.287  0.00  0.00    +0.025 HD
ATOM    208  H   UNL     1     147.732 182.892 190.253  0.00  0.00    +0.025 HD
ATOM    209  H   UNL     1     149.286 182.117 189.917  0.00  0.00    +0.025 HD
ENDBRANCH 195 206
BRANCH 197 210
ATOM    210  O   UNL     1     145.529 183.300 189.498  0.00  0.00    -0.380 OA
BRANCH 210 211
ATOM    211  C   UNL     1     144.879 183.431 190.755  0.00  0.00    +0.037 C 
ATOM    212  H   UNL     1     144.915 182.462 191.260  0.00  0.00    +0.052 HD
ATOM    213  H   UNL     1     145.399 184.165 191.378  0.00  0.00    +0.052 HD
ATOM    214  H   UNL     1     143.831 183.717 190.633  0.00  0.00    +0.052 HD
ENDBRANCH 210 211
ENDBRANCH 197 210
ENDBRANCH 190 193
ENDBRANCH 187 190
ENDBRANCH 181 187
ENDBRANCH 177 181
ENDBRANCH 171 177
ENDBRANCH  22 171
BRANCH  20 215
ATOM    215  O   UNL     1     141.262 179.378 185.183  0.00  0.00    -0.391 OA
ATOM    216  H   UNL     1     140.802 180.219 185.338  0.00  0.00    +0.210 HD
ENDBRANCH  20 215
BRANCH  18 217
ATOM    217  O   UNL     1     144.436 178.205 187.443  0.00  0.00    -0.391 OA
ATOM    218  H   UNL     1     144.672 178.694 186.633  0.00  0.00    +0.210 HD
ENDBRANCH  18 217
BRANCH  10 219
ATOM    219  O   UNL     1     145.656 175.282 181.605  0.00  0.00    -0.391 OA
ATOM    220  H   UNL     1     146.257 175.420 180.853  0.00  0.00    +0.210 HD
ENDBRANCH  10 219
BRANCH  37 221
ATOM    221  O   UNL     1     141.120 169.000 189.555  0.00  0.00    -0.379 OA
BRANCH 221 222
ATOM    222  C   UNL     1     141.010 170.345 190.001  0.00  0.00    +0.037 C 
ATOM    223  H   UNL     1     142.012 170.784 190.007  0.00  0.00    +0.052 HD
ATOM    224  H   UNL     1     140.388 170.920 189.312  0.00  0.00    +0.052 HD
ATOM    225  H   UNL     1     140.600 170.401 191.014  0.00  0.00    +0.052 HD
ENDBRANCH 221 222
ENDBRANCH  37 221
BRANCH  16 226
ATOM    226  O   UNL     1     141.513 175.275 188.370  0.00  0.00    -0.379 OA
BRANCH 226 227
ATOM    227  C   UNL     1     141.844 174.517 189.528  0.00  0.00    +0.037 C 
ATOM    228  H   UNL     1     141.767 173.455 189.279  0.00  0.00    +0.052 HD
ATOM    229  H   UNL     1     142.871 174.726 189.843  0.00  0.00    +0.052 HD
ATOM    230  H   UNL     1     141.149 174.735 190.345  0.00  0.00    +0.052 HD
ENDBRANCH 226 227
ENDBRANCH  16 226
TORSDOF 40
ENDMDL
MODEL 6
REMARK VINA RESULT:      -5.3      6.836     12.902
REMARK  Name = Swinholide A_conf3
REMARK  40 active torsions:
REMARK  status: ('A' for Active; 'I' for Inactive)
REMARK    1  A    between atoms: C_1  and  C_2
REMARK    2  A    between atoms: C_4  and  C_10
REMARK    3  A    between atoms: C_6  and  O_8
REMARK    4  A    between atoms: O_8  and  C_9
REMARK    5  A    between atoms: C_10  and  C_11
REMARK    6  A    between atoms: C_11  and  C_12
REMARK    7  A    between atoms: C_12  and  C_13
REMARK    8  A    between atoms: C_12  and  C_98
REMARK    9  A    between atoms: C_13  and  O_14
REMARK   10  A    between atoms: C_13  and  C_15
REMARK   11  A    between atoms: C_15  and  C_16
REMARK   12  A    between atoms: C_15  and  C_97
REMARK   13  A    between atoms: C_22  and  C_96
REMARK   14  A    between atoms: C_25  and  O_95
REMARK   15  A    between atoms: C_31  and  O_90
REMARK   16  A    between atoms: C_32  and  C_89
REMARK   17  A    between atoms: C_33  and  O_88
REMARK   18  A    between atoms: C_35  and  O_87
REMARK   19  A    between atoms: C_36  and  C_86
REMARK   20  A    between atoms: C_37  and  C_69
REMARK   21  A    between atoms: C_43  and  C_68
REMARK   22  A    between atoms: C_46  and  O_67
REMARK   23  A    between atoms: C_52  and  O_62
REMARK   24  A    between atoms: C_53  and  C_61
REMARK   25  A    between atoms: C_54  and  O_60
REMARK   26  A    between atoms: C_56  and  O_59
REMARK   27  A    between atoms: C_57  and  C_58
REMARK   28  A    between atoms: O_62  and  C_63
REMARK   29  A    between atoms: C_69  and  C_70
REMARK   30  A    between atoms: C_69  and  C_85
REMARK   31  A    between atoms: C_70  and  O_71
REMARK   32  A    between atoms: C_70  and  C_72
REMARK   33  A    between atoms: C_72  and  C_73
REMARK   34  A    between atoms: C_72  and  C_84
REMARK   35  A    between atoms: C_73  and  C_74
REMARK   36  A    between atoms: C_74  and  C_75
REMARK   37  A    between atoms: C_77  and  C_83
REMARK   38  A    between atoms: C_79  and  O_81
REMARK   39  A    between atoms: O_81  and  C_82
REMARK   40  A    between atoms: O_90  and  C_91
REMARK                            x       y       z     vdW  Elec       q    Type
REMARK                         _______ _______ _______ _____ _____    ______ ____
ROOT
ATOM      1  C   UNL     1     145.836 171.162 190.008  0.00  0.00    +0.113 C 
ATOM      2  O   UNL     1     145.116 172.219 190.695  0.00  0.00    -0.458 OA
ATOM      3  C   UNL     1     143.807 171.945 190.942  0.00  0.00    +0.332 C 
ATOM      4  O   UNL     1     143.245 170.878 190.735  0.00  0.00    -0.246 OA
ATOM      5  C   UNL     1     143.050 173.081 191.476  0.00  0.00    +0.023 C 
ATOM      6  C   UNL     1     143.542 174.130 192.150  0.00  0.00    -0.052 C 
ATOM      7  C   UNL     1     142.663 175.135 192.742  0.00  0.00    -0.054 C 
ATOM      8  C   UNL     1     141.564 174.752 193.424  0.00  0.00    -0.079 C 
ATOM      9  C   UNL     1     140.496 175.609 194.033  0.00  0.00    -0.008 C 
ATOM     10  C   UNL     1     139.437 176.195 193.072  0.00  0.00    +0.061 C 
ATOM     11  C   UNL     1     139.233 175.502 191.719  0.00  0.00    +0.003 C 
ATOM     12  C   UNL     1     138.369 174.233 191.640  0.00  0.00    +0.080 C 
ATOM     13  O   UNL     1     138.428 173.866 190.246  0.00  0.00    -0.369 OA
ATOM     14  C   UNL     1     138.014 172.527 189.926  0.00  0.00    +0.065 C 
ATOM     15  C   UNL     1     136.499 172.379 190.150  0.00  0.00    +0.000 C 
ATOM     16  C   UNL     1     135.865 171.094 189.581  0.00  0.00    +0.066 C 
ATOM     17  C   UNL     1     134.314 171.164 189.706  0.00  0.00    +0.009 C 
ATOM     18  C   UNL     1     133.749 170.809 191.112  0.00  0.00    +0.063 C 
ATOM     19  C   UNL     1     132.537 171.679 191.524  0.00  0.00    -0.000 C 
ATOM     20  C   UNL     1     132.907 173.171 191.682  0.00  0.00    +0.064 C 
ATOM     21  C   UNL     1     132.305 173.822 192.957  0.00  0.00    +0.020 C 
ATOM     22  C   UNL     1     133.163 175.003 193.538  0.00  0.00    +0.113 C 
ATOM     23  O   UNL     1     134.158 175.454 192.600  0.00  0.00    -0.458 OA
ATOM     24  C   UNL     1     133.773 176.391 191.699  0.00  0.00    +0.332 C 
ATOM     25  O   UNL     1     132.750 177.056 191.728  0.00  0.00    -0.246 OA
ATOM     26  C   UNL     1     134.810 176.454 190.649  0.00  0.00    +0.023 C 
ATOM     27  C   UNL     1     134.650 177.267 189.595  0.00  0.00    -0.052 C 
ATOM     28  C   UNL     1     135.582 177.378 188.480  0.00  0.00    -0.054 C 
ATOM     29  C   UNL     1     136.135 176.285 187.914  0.00  0.00    -0.079 C 
ATOM     30  C   UNL     1     137.058 176.249 186.724  0.00  0.00    -0.008 C 
ATOM     31  C   UNL     1     138.542 176.302 187.138  0.00  0.00    +0.061 C 
ATOM     32  C   UNL     1     139.234 174.938 186.987  0.00  0.00    +0.003 C 
ATOM     33  C   UNL     1     140.615 174.884 187.664  0.00  0.00    +0.080 C 
ATOM     34  O   UNL     1     140.998 173.514 187.907  0.00  0.00    -0.369 OA
ATOM     35  C   UNL     1     141.638 172.858 186.794  0.00  0.00    +0.065 C 
ATOM     36  C   UNL     1     141.879 171.396 187.227  0.00  0.00    +0.000 C 
ATOM     37  C   UNL     1     142.622 170.521 186.195  0.00  0.00    +0.066 C 
ATOM     38  C   UNL     1     142.878 169.075 186.718  0.00  0.00    +0.009 C 
ATOM     39  C   UNL     1     143.782 168.957 187.976  0.00  0.00    +0.063 C 
ATOM     40  C   UNL     1     145.320 168.921 187.836  0.00  0.00    -0.000 C 
ATOM     41  C   UNL     1     146.079 170.230 187.572  0.00  0.00    +0.064 C 
ATOM     42  C   UNL     1     145.714 171.430 188.475  0.00  0.00    +0.020 C 
ATOM     43  C   UNL     1     142.952 173.586 186.476  0.00  0.00    -0.008 C 
ATOM     44  C   UNL     1     142.758 175.063 186.368  0.00  0.00    -0.083 C 
ATOM     45  C   UNL     1     141.687 175.645 186.919  0.00  0.00    -0.059 C 
ATOM     46  C   UNL     1     138.903 171.520 190.670  0.00  0.00    -0.008 C 
ATOM     47  C   UNL     1     139.033 171.860 192.120  0.00  0.00    -0.083 C 
ATOM     48  C   UNL     1     138.775 173.103 192.549  0.00  0.00    -0.059 C 
ATOM     49  H   UNL     1     145.317 170.217 190.201  0.00  0.00    +0.074 HD
ATOM     50  H   UNL     1     141.979 172.961 191.334  0.00  0.00    +0.069 HD
ATOM     51  H   UNL     1     144.612 174.262 192.286  0.00  0.00    +0.062 HD
ATOM     52  H   UNL     1     141.384 173.685 193.558  0.00  0.00    +0.058 HD
ATOM     53  H   UNL     1     140.957 176.432 194.595  0.00  0.00    +0.033 HD
ATOM     54  H   UNL     1     139.995 175.014 194.808  0.00  0.00    +0.033 HD
ATOM     55  H   UNL     1     139.754 177.223 192.849  0.00  0.00    +0.060 HD
ATOM     56  H   UNL     1     140.196 175.328 191.223  0.00  0.00    +0.032 HD
ATOM     57  H   UNL     1     138.737 176.233 191.060  0.00  0.00    +0.032 HD
ATOM     58  H   UNL     1     137.332 174.502 191.868  0.00  0.00    +0.064 HD
ATOM     59  H   UNL     1     138.213 172.410 188.855  0.00  0.00    +0.060 HD
ATOM     60  H   UNL     1     136.026 173.249 189.676  0.00  0.00    +0.032 HD
ATOM     61  H   UNL     1     136.273 172.472 191.213  0.00  0.00    +0.032 HD
ATOM     62  H   UNL     1     136.243 170.210 190.109  0.00  0.00    +0.060 HD
ATOM     63  H   UNL     1     134.027 172.190 189.447  0.00  0.00    +0.035 HD
ATOM     64  H   UNL     1     133.418 169.762 191.095  0.00  0.00    +0.060 HD
ATOM     65  H   UNL     1     132.180 171.286 192.483  0.00  0.00    +0.032 HD
ATOM     66  H   UNL     1     131.729 171.554 190.794  0.00  0.00    +0.032 HD
ATOM     67  H   UNL     1     133.992 173.248 191.723  0.00  0.00    +0.060 HD
ATOM     68  H   UNL     1     132.247 173.051 193.732  0.00  0.00    +0.036 HD
ATOM     69  H   UNL     1     132.506 175.856 193.756  0.00  0.00    +0.074 HD
ATOM     70  H   UNL     1     135.659 175.792 190.754  0.00  0.00    +0.069 HD
ATOM     71  H   UNL     1     133.769 177.908 189.541  0.00  0.00    +0.062 HD
ATOM     72  H   UNL     1     135.896 175.299 188.313  0.00  0.00    +0.058 HD
ATOM     73  H   UNL     1     136.845 175.331 186.159  0.00  0.00    +0.033 HD
ATOM     74  H   UNL     1     136.812 177.063 186.033  0.00  0.00    +0.033 HD
ATOM     75  H   UNL     1     138.639 176.649 188.174  0.00  0.00    +0.060 HD
ATOM     76  H   UNL     1     138.601 174.159 187.422  0.00  0.00    +0.032 HD
ATOM     77  H   UNL     1     139.338 174.689 185.922  0.00  0.00    +0.032 HD
ATOM     78  H   UNL     1     140.530 175.328 188.662  0.00  0.00    +0.064 HD
ATOM     79  H   UNL     1     140.959 172.878 185.931  0.00  0.00    +0.060 HD
ATOM     80  H   UNL     1     142.406 171.413 188.184  0.00  0.00    +0.032 HD
ATOM     81  H   UNL     1     140.898 170.950 187.443  0.00  0.00    +0.032 HD
ATOM     82  H   UNL     1     143.569 170.991 185.928  0.00  0.00    +0.060 HD
ATOM     83  H   UNL     1     141.888 168.687 187.004  0.00  0.00    +0.035 HD
ATOM     84  H   UNL     1     143.507 169.713 188.704  0.00  0.00    +0.060 HD
ATOM     85  H   UNL     1     145.588 168.193 187.060  0.00  0.00    +0.032 HD
ATOM     86  H   UNL     1     145.727 168.488 188.760  0.00  0.00    +0.032 HD
ATOM     87  H   UNL     1     147.149 170.015 187.684  0.00  0.00    +0.060 HD
ATOM     88  H   UNL     1     144.654 171.639 188.295  0.00  0.00    +0.036 HD
ATOM     89  H   UNL     1     143.385 173.215 185.542  0.00  0.00    +0.033 HD
ATOM     90  H   UNL     1     143.676 173.419 187.275  0.00  0.00    +0.033 HD
ATOM     91  H   UNL     1     143.510 175.657 185.857  0.00  0.00    +0.057 HD
ATOM     92  H   UNL     1     141.565 176.720 186.830  0.00  0.00    +0.059 HD
ATOM     93  H   UNL     1     139.911 171.536 190.236  0.00  0.00    +0.033 HD
ATOM     94  H   UNL     1     138.519 170.504 190.554  0.00  0.00    +0.033 HD
ATOM     95  H   UNL     1     139.320 171.078 192.816  0.00  0.00    +0.057 HD
ATOM     96  H   UNL     1     138.797 173.309 193.613  0.00  0.00    +0.059 HD
ENDROOT
BRANCH  28  97
ATOM     97  C   UNL     1     135.809 178.793 188.021  0.00  0.00    -0.040 C 
ATOM     98  H   UNL     1     136.160 178.860 186.989  0.00  0.00    +0.028 HD
ATOM     99  H   UNL     1     134.883 179.375 188.097  0.00  0.00    +0.028 HD
ATOM    100  H   UNL     1     136.573 179.274 188.643  0.00  0.00    +0.028 HD
ENDBRANCH  28  97
BRANCH  21 101
ATOM    101  C   UNL     1     130.853 174.281 192.754  0.00  0.00    -0.057 C 
ATOM    102  H   UNL     1     130.461 174.799 193.634  0.00  0.00    +0.023 HD
ATOM    103  H   UNL     1     130.202 173.422 192.560  0.00  0.00    +0.023 HD
ATOM    104  H   UNL     1     130.771 174.954 191.894  0.00  0.00    +0.023 HD
ENDBRANCH  21 101
BRANCH  42 105
ATOM    105  C   UNL     1     146.404 172.720 188.001  0.00  0.00    -0.057 C 
ATOM    106  H   UNL     1     147.462 172.532 187.786  0.00  0.00    +0.023 HD
ATOM    107  H   UNL     1     145.953 173.111 187.083  0.00  0.00    +0.023 HD
ATOM    108  H   UNL     1     146.391 173.497 188.768  0.00  0.00    +0.023 HD
ENDBRANCH  42 105
BRANCH  17 109
ATOM    109  C   UNL     1     133.593 170.299 188.657  0.00  0.00    -0.058 C 
ATOM    110  H   UNL     1     133.245 170.902 187.814  0.00  0.00    +0.023 HD
ATOM    111  H   UNL     1     132.729 169.782 189.090  0.00  0.00    +0.023 HD
ATOM    112  H   UNL     1     134.260 169.523 188.264  0.00  0.00    +0.023 HD
ENDBRANCH  17 109
BRANCH  38 113
ATOM    113  C   UNL     1     143.345 168.125 185.604  0.00  0.00    -0.058 C 
ATOM    114  H   UNL     1     143.025 168.474 184.618  0.00  0.00    +0.023 HD
ATOM    115  H   UNL     1     144.437 168.031 185.598  0.00  0.00    +0.023 HD
ATOM    116  H   UNL     1     142.944 167.117 185.754  0.00  0.00    +0.023 HD
ENDBRANCH  38 113
BRANCH   7 117
ATOM    117  C   UNL     1     143.067 176.561 192.511  0.00  0.00    -0.040 C 
ATOM    118  H   UNL     1     143.184 177.078 193.466  0.00  0.00    +0.028 HD
ATOM    119  H   UNL     1     142.330 177.117 191.926  0.00  0.00    +0.028 HD
ATOM    120  H   UNL     1     144.018 176.616 191.969  0.00  0.00    +0.028 HD
ENDBRANCH   7 117
BRANCH   1 121
ATOM    121  C   UNL     1     147.245 170.936 190.636  0.00  0.00    +0.020 C 
ATOM    122  H   UNL     1     147.962 170.998 189.808  0.00  0.00    +0.036 HD
BRANCH 121 123
ATOM    123  C   UNL     1     147.702 171.980 191.651  0.00  0.00    -0.057 C 
ATOM    124  H   UNL     1     147.904 172.946 191.183  0.00  0.00    +0.023 HD
ATOM    125  H   UNL     1     146.952 172.117 192.435  0.00  0.00    +0.023 HD
ATOM    126  H   UNL     1     148.597 171.652 192.182  0.00  0.00    +0.023 HD
ENDBRANCH 121 123
BRANCH 121 127
ATOM    127  C   UNL     1     147.359 169.486 191.215  0.00  0.00    +0.064 C 
ATOM    128  H   UNL     1     147.513 169.591 192.296  0.00  0.00    +0.060 HD
BRANCH 127 129
ATOM    129  C   UNL     1     148.477 168.564 190.622  0.00  0.00    -0.017 C 
ATOM    130  H   UNL     1     148.676 168.870 189.593  0.00  0.00    +0.032 HD
BRANCH 129 131
ATOM    131  C   UNL     1     149.780 168.799 191.405  0.00  0.00    -0.060 C 
ATOM    132  H   UNL     1     149.591 169.337 192.341  0.00  0.00    +0.023 HD
ATOM    133  H   UNL     1     150.490 169.390 190.815  0.00  0.00    +0.023 HD
ATOM    134  H   UNL     1     150.276 167.854 191.648  0.00  0.00    +0.023 HD
ENDBRANCH 129 131
BRANCH 129 135
ATOM    135  C   UNL     1     148.124 167.058 190.641  0.00  0.00    -0.046 C 
ATOM    136  H   UNL     1     148.273 166.620 189.650  0.00  0.00    +0.027 HD
ATOM    137  H   UNL     1     147.054 166.938 190.859  0.00  0.00    +0.027 HD
BRANCH 135 138
ATOM    138  C   UNL     1     148.894 166.194 191.655  0.00  0.00    -0.026 C 
ATOM    139  H   UNL     1     149.787 166.769 191.938  0.00  0.00    +0.029 HD
ATOM    140  H   UNL     1     149.261 165.281 191.170  0.00  0.00    +0.029 HD
BRANCH 138 143
ATOM    141  C   UNL     1     146.003 166.335 194.008  0.00  0.00    +0.059 C 
ATOM    142  O   UNL     1     146.777 166.299 192.802  0.00  0.00    -0.373 OA
ATOM    143  C   UNL     1     148.121 165.834 192.934  0.00  0.00    +0.061 C 
ATOM    144  C   UNL     1     148.800 166.456 194.157  0.00  0.00    -0.000 C 
ATOM    145  C   UNL     1     148.039 166.127 195.447  0.00  0.00    +0.063 C 
ATOM    146  C   UNL     1     146.646 165.570 195.158  0.00  0.00    -0.000 C 
ATOM    147  H   UNL     1     145.899 167.391 194.285  0.00  0.00    +0.059 HD
ATOM    148  H   UNL     1     148.104 164.743 193.038  0.00  0.00    +0.060 HD
ATOM    149  H   UNL     1     149.845 166.133 194.209  0.00  0.00    +0.032 HD
ATOM    150  H   UNL     1     148.797 167.547 194.038  0.00  0.00    +0.032 HD
ATOM    151  H   UNL     1     147.932 167.041 196.049  0.00  0.00    +0.060 HD
ATOM    152  H   UNL     1     146.031 165.629 196.064  0.00  0.00    +0.032 HD
ATOM    153  H   UNL     1     146.714 164.505 194.911  0.00  0.00    +0.032 HD
BRANCH 141 154
ATOM    154  C   UNL     1     144.619 165.787 193.689  0.00  0.00    -0.039 C 
ATOM    155  H   UNL     1     143.833 166.464 194.038  0.00  0.00    +0.025 HD
ATOM    156  H   UNL     1     144.501 165.641 192.611  0.00  0.00    +0.025 HD
ATOM    157  H   UNL     1     144.469 164.809 194.159  0.00  0.00    +0.025 HD
ENDBRANCH 141 154
BRANCH 145 158
ATOM    158  O   UNL     1     148.739 165.144 196.220  0.00  0.00    -0.380 OA
BRANCH 158 159
ATOM    159  C   UNL     1     150.142 165.366 196.274  0.00  0.00    +0.037 C 
ATOM    160  H   UNL     1     150.596 164.538 196.829  0.00  0.00    +0.052 HD
ATOM    161  H   UNL     1     150.582 165.394 195.273  0.00  0.00    +0.052 HD
ATOM    162  H   UNL     1     150.357 166.299 196.804  0.00  0.00    +0.052 HD
ENDBRANCH 158 159
ENDBRANCH 145 158
ENDBRANCH 138 143
ENDBRANCH 135 138
ENDBRANCH 129 135
ENDBRANCH 127 129
BRANCH 127 163
ATOM    163  O   UNL     1     146.076 168.863 191.076  0.00  0.00    -0.391 OA
ATOM    164  H   UNL     1     145.795 168.582 191.964  0.00  0.00    +0.210 HD
ENDBRANCH 127 163
ENDBRANCH 121 127
ENDBRANCH   1 121
BRANCH  41 165
ATOM    165  O   UNL     1     145.881 170.581 186.200  0.00  0.00    -0.391 OA
ATOM    166  H   UNL     1     145.835 171.550 186.151  0.00  0.00    +0.210 HD
ENDBRANCH  41 165
BRANCH  39 167
ATOM    167  O   UNL     1     143.447 167.699 188.610  0.00  0.00    -0.391 OA
ATOM    168  H   UNL     1     144.043 167.606 189.374  0.00  0.00    +0.210 HD
ENDBRANCH  39 167
BRANCH  31 169
ATOM    169  O   UNL     1     139.204 177.269 186.316  0.00  0.00    -0.391 OA
ATOM    170  H   UNL     1     139.167 178.122 186.788  0.00  0.00    +0.210 HD
ENDBRANCH  31 169
BRANCH  22 171
ATOM    171  C   UNL     1     133.863 174.644 194.905  0.00  0.00    +0.020 C 
ATOM    172  H   UNL     1     134.941 174.764 194.736  0.00  0.00    +0.036 HD
BRANCH 171 173
ATOM    173  C   UNL     1     133.408 175.693 195.942  0.00  0.00    -0.057 C 
ATOM    174  H   UNL     1     134.215 175.955 196.634  0.00  0.00    +0.023 HD
ATOM    175  H   UNL     1     133.071 176.617 195.461  0.00  0.00    +0.023 HD
ATOM    176  H   UNL     1     132.601 175.327 196.576  0.00  0.00    +0.023 HD
ENDBRANCH 171 173
BRANCH 171 177
ATOM    177  C   UNL     1     133.632 173.176 195.396  0.00  0.00    +0.064 C 
ATOM    178  H   UNL     1     132.662 172.831 195.015  0.00  0.00    +0.060 HD
BRANCH 177 179
ATOM    179  O   UNL     1     134.639 172.348 194.816  0.00  0.00    -0.391 OA
ATOM    180  H   UNL     1     135.448 172.882 194.675  0.00  0.00    +0.210 HD
ENDBRANCH 177 179
BRANCH 177 181
ATOM    181  C   UNL     1     133.683 172.894 196.933  0.00  0.00    -0.017 C 
ATOM    182  H   UNL     1     133.547 173.850 197.457  0.00  0.00    +0.032 HD
BRANCH 181 183
ATOM    183  C   UNL     1     132.601 171.940 197.436  0.00  0.00    -0.060 C 
ATOM    184  H   UNL     1     132.120 171.432 196.596  0.00  0.00    +0.023 HD
ATOM    185  H   UNL     1     131.783 172.464 197.939  0.00  0.00    +0.023 HD
ATOM    186  H   UNL     1     133.009 171.202 198.132  0.00  0.00    +0.023 HD
ENDBRANCH 181 183
BRANCH 181 187
ATOM    187  C   UNL     1     135.108 172.387 197.310  0.00  0.00    -0.046 C 
ATOM    188  H   UNL     1     135.511 171.806 196.471  0.00  0.00    +0.027 HD
ATOM    189  H   UNL     1     135.031 171.696 198.160  0.00  0.00    +0.027 HD
BRANCH 187 190
ATOM    190  C   UNL     1     136.116 173.492 197.656  0.00  0.00    -0.026 C 
ATOM    191  H   UNL     1     137.131 173.160 197.409  0.00  0.00    +0.029 HD
ATOM    192  H   UNL     1     135.888 174.371 197.040  0.00  0.00    +0.029 HD
BRANCH 190 193
ATOM    193  C   UNL     1     136.064 173.912 199.133  0.00  0.00    +0.061 C 
ATOM    194  O   UNL     1     135.280 172.953 199.851  0.00  0.00    -0.373 OA
ATOM    195  C   UNL     1     135.166 173.216 201.253  0.00  0.00    +0.059 C 
ATOM    196  C   UNL     1     134.575 174.606 201.509  0.00  0.00    -0.000 C 
ATOM    197  C   UNL     1     135.277 175.714 200.722  0.00  0.00    +0.063 C 
ATOM    198  C   UNL     1     135.434 175.301 199.259  0.00  0.00    -0.000 C 
ATOM    199  H   UNL     1     137.088 173.917 199.522  0.00  0.00    +0.060 HD
ATOM    200  H   UNL     1     134.441 172.483 201.630  0.00  0.00    +0.059 HD
ATOM    201  H   UNL     1     134.568 174.815 202.582  0.00  0.00    +0.032 HD
ATOM    202  H   UNL     1     133.528 174.588 201.178  0.00  0.00    +0.032 HD
ATOM    203  H   UNL     1     134.676 176.632 200.756  0.00  0.00    +0.060 HD
ATOM    204  H   UNL     1     136.047 176.036 198.723  0.00  0.00    +0.032 HD
ATOM    205  H   UNL     1     134.438 175.293 198.798  0.00  0.00    +0.032 HD
BRANCH 195 206
ATOM    206  C   UNL     1     136.473 172.943 201.993  0.00  0.00    -0.039 C 
ATOM    207  H   UNL     1     136.708 173.778 202.663  0.00  0.00    +0.025 HD
ATOM    208  H   UNL     1     137.301 172.819 201.288  0.00  0.00    +0.025 HD
ATOM    209  H   UNL     1     136.430 172.049 202.621  0.00  0.00    +0.025 HD
ENDBRANCH 195 206
BRANCH 197 210
ATOM    210  O   UNL     1     136.579 175.997 201.243  0.00  0.00    -0.380 OA
BRANCH 210 211
ATOM    211  C   UNL     1     137.128 177.219 200.768  0.00  0.00    +0.037 C 
ATOM    212  H   UNL     1     136.871 177.320 199.711  0.00  0.00    +0.052 HD
ATOM    213  H   UNL     1     136.698 178.066 201.312  0.00  0.00    +0.052 HD
ATOM    214  H   UNL     1     138.217 177.228 200.860  0.00  0.00    +0.052 HD
ENDBRANCH 210 211
ENDBRANCH 197 210
ENDBRANCH 190 193
ENDBRANCH 187 190
ENDBRANCH 181 187
ENDBRANCH 177 181
ENDBRANCH 171 177
ENDBRANCH  22 171
BRANCH  20 215
ATOM    215  O   UNL     1     132.521 173.876 190.501  0.00  0.00    -0.391 OA
ATOM    216  H   UNL     1     133.306 174.286 190.101  0.00  0.00    +0.210 HD
ENDBRANCH  20 215
BRANCH  18 217
ATOM    217  O   UNL     1     134.726 170.882 192.155  0.00  0.00    -0.391 OA
ATOM    218  H   UNL     1     134.236 170.921 192.998  0.00  0.00    +0.210 HD
ENDBRANCH  18 217
BRANCH  10 219
ATOM    219  O   UNL     1     138.199 176.305 193.778  0.00  0.00    -0.391 OA
ATOM    220  H   UNL     1     137.610 175.594 193.475  0.00  0.00    +0.210 HD
ENDBRANCH  10 219
BRANCH  37 221
ATOM    221  O   UNL     1     141.758 170.447 185.045  0.00  0.00    -0.379 OA
BRANCH 221 222
ATOM    222  C   UNL     1     140.450 169.981 185.349  0.00  0.00    +0.037 C 
ATOM    223  H   UNL     1     140.104 170.500 186.247  0.00  0.00    +0.052 HD
ATOM    224  H   UNL     1     139.766 170.219 184.531  0.00  0.00    +0.052 HD
ATOM    225  H   UNL     1     140.442 168.904 185.544  0.00  0.00    +0.052 HD
ENDBRANCH 221 222
ENDBRANCH  37 221
BRANCH  16 226
ATOM    226  O   UNL     1     136.216 171.039 188.187  0.00  0.00    -0.379 OA
BRANCH 226 227
ATOM    227  C   UNL     1     136.982 169.890 187.844  0.00  0.00    +0.037 C 
ATOM    228  H   UNL     1     137.155 169.307 188.752  0.00  0.00    +0.052 HD
ATOM    229  H   UNL     1     136.438 169.266 187.128  0.00  0.00    +0.052 HD
ATOM    230  H   UNL     1     137.951 170.181 187.426  0.00  0.00    +0.052 HD
ENDBRANCH 226 227
ENDBRANCH  16 226
TORSDOF 40
ENDMDL
MODEL 7
REMARK VINA RESULT:      -5.3      6.398     14.385
REMARK  Name = Swinholide A_conf3
REMARK  40 active torsions:
REMARK  status: ('A' for Active; 'I' for Inactive)
REMARK    1  A    between atoms: C_1  and  C_2
REMARK    2  A    between atoms: C_4  and  C_10
REMARK    3  A    between atoms: C_6  and  O_8
REMARK    4  A    between atoms: O_8  and  C_9
REMARK    5  A    between atoms: C_10  and  C_11
REMARK    6  A    between atoms: C_11  and  C_12
REMARK    7  A    between atoms: C_12  and  C_13
REMARK    8  A    between atoms: C_12  and  C_98
REMARK    9  A    between atoms: C_13  and  O_14
REMARK   10  A    between atoms: C_13  and  C_15
REMARK   11  A    between atoms: C_15  and  C_16
REMARK   12  A    between atoms: C_15  and  C_97
REMARK   13  A    between atoms: C_22  and  C_96
REMARK   14  A    between atoms: C_25  and  O_95
REMARK   15  A    between atoms: C_31  and  O_90
REMARK   16  A    between atoms: C_32  and  C_89
REMARK   17  A    between atoms: C_33  and  O_88
REMARK   18  A    between atoms: C_35  and  O_87
REMARK   19  A    between atoms: C_36  and  C_86
REMARK   20  A    between atoms: C_37  and  C_69
REMARK   21  A    between atoms: C_43  and  C_68
REMARK   22  A    between atoms: C_46  and  O_67
REMARK   23  A    between atoms: C_52  and  O_62
REMARK   24  A    between atoms: C_53  and  C_61
REMARK   25  A    between atoms: C_54  and  O_60
REMARK   26  A    between atoms: C_56  and  O_59
REMARK   27  A    between atoms: C_57  and  C_58
REMARK   28  A    between atoms: O_62  and  C_63
REMARK   29  A    between atoms: C_69  and  C_70
REMARK   30  A    between atoms: C_69  and  C_85
REMARK   31  A    between atoms: C_70  and  O_71
REMARK   32  A    between atoms: C_70  and  C_72
REMARK   33  A    between atoms: C_72  and  C_73
REMARK   34  A    between atoms: C_72  and  C_84
REMARK   35  A    between atoms: C_73  and  C_74
REMARK   36  A    between atoms: C_74  and  C_75
REMARK   37  A    between atoms: C_77  and  C_83
REMARK   38  A    between atoms: C_79  and  O_81
REMARK   39  A    between atoms: O_81  and  C_82
REMARK   40  A    between atoms: O_90  and  C_91
REMARK                            x       y       z     vdW  Elec       q    Type
REMARK                         _______ _______ _______ _____ _____    ______ ____
ROOT
ATOM      1  C   UNL     1     143.183 179.888 187.054  0.00  0.00    +0.113 C 
ATOM      2  O   UNL     1     142.552 178.855 187.856  0.00  0.00    -0.458 OA
ATOM      3  C   UNL     1     143.175 177.647 187.815  0.00  0.00    +0.332 C 
ATOM      4  O   UNL     1     144.241 177.406 187.265  0.00  0.00    -0.246 OA
ATOM      5  C   UNL     1     142.437 176.572 188.485  0.00  0.00    +0.023 C 
ATOM      6  C   UNL     1     141.534 176.706 189.466  0.00  0.00    -0.052 C 
ATOM      7  C   UNL     1     140.961 175.544 190.139  0.00  0.00    -0.054 C 
ATOM      8  C   UNL     1     141.758 174.526 190.521  0.00  0.00    -0.079 C 
ATOM      9  C   UNL     1     141.372 173.218 191.144  0.00  0.00    -0.008 C 
ATOM     10  C   UNL     1     140.799 172.136 190.201  0.00  0.00    +0.061 C 
ATOM     11  C   UNL     1     141.116 172.248 188.704  0.00  0.00    +0.003 C 
ATOM     12  C   UNL     1     142.475 171.758 188.178  0.00  0.00    +0.080 C 
ATOM     13  O   UNL     1     142.415 172.041 186.765  0.00  0.00    -0.369 OA
ATOM     14  C   UNL     1     143.671 172.024 186.062  0.00  0.00    +0.065 C 
ATOM     15  C   UNL     1     144.217 170.587 185.999  0.00  0.00    +0.000 C 
ATOM     16  C   UNL     1     145.401 170.368 185.037  0.00  0.00    +0.066 C 
ATOM     17  C   UNL     1     145.724 168.849 184.926  0.00  0.00    +0.009 C 
ATOM     18  C   UNL     1     146.576 168.268 186.093  0.00  0.00    +0.063 C 
ATOM     19  C   UNL     1     146.156 166.838 186.507  0.00  0.00    -0.000 C 
ATOM     20  C   UNL     1     144.723 166.787 187.085  0.00  0.00    +0.064 C 
ATOM     21  C   UNL     1     144.607 165.920 188.368  0.00  0.00    +0.020 C 
ATOM     22  C   UNL     1     143.471 166.380 189.351  0.00  0.00    +0.113 C 
ATOM     23  O   UNL     1     142.563 167.304 188.724  0.00  0.00    -0.458 OA
ATOM     24  C   UNL     1     141.525 166.772 188.032  0.00  0.00    +0.332 C 
ATOM     25  O   UNL     1     141.146 165.612 188.060  0.00  0.00    -0.246 OA
ATOM     26  C   UNL     1     140.938 167.849 187.209  0.00  0.00    +0.023 C 
ATOM     27  C   UNL     1     139.923 167.580 186.376  0.00  0.00    -0.052 C 
ATOM     28  C   UNL     1     139.297 168.550 185.487  0.00  0.00    -0.054 C 
ATOM     29  C   UNL     1     140.032 169.419 184.764  0.00  0.00    -0.079 C 
ATOM     30  C   UNL     1     139.525 170.426 183.765  0.00  0.00    -0.008 C 
ATOM     31  C   UNL     1     139.252 171.799 184.411  0.00  0.00    +0.061 C 
ATOM     32  C   UNL     1     140.325 172.836 184.042  0.00  0.00    +0.003 C 
ATOM     33  C   UNL     1     140.249 174.114 184.895  0.00  0.00    +0.080 C 
ATOM     34  O   UNL     1     141.507 174.819 184.851  0.00  0.00    -0.369 OA
ATOM     35  C   UNL     1     141.664 175.708 183.728  0.00  0.00    +0.065 C 
ATOM     36  C   UNL     1     143.093 176.283 183.821  0.00  0.00    +0.000 C 
ATOM     37  C   UNL     1     143.453 177.323 182.738  0.00  0.00    +0.066 C 
ATOM     38  C   UNL     1     144.889 177.899 182.923  0.00  0.00    +0.009 C 
ATOM     39  C   UNL     1     145.143 178.682 184.241  0.00  0.00    +0.063 C 
ATOM     40  C   UNL     1     144.787 180.181 184.343  0.00  0.00    -0.000 C 
ATOM     41  C   UNL     1     143.319 180.591 184.535  0.00  0.00    +0.064 C 
ATOM     42  C   UNL     1     142.534 179.842 185.635  0.00  0.00    +0.020 C 
ATOM     43  C   UNL     1     140.596 176.809 183.813  0.00  0.00    -0.008 C 
ATOM     44  C   UNL     1     139.232 176.246 184.043  0.00  0.00    -0.083 C 
ATOM     45  C   UNL     1     139.087 175.013 184.542  0.00  0.00    -0.059 C 
ATOM     46  C   UNL     1     144.614 173.073 186.668  0.00  0.00    -0.008 C 
ATOM     47  C   UNL     1     144.671 172.975 188.158  0.00  0.00    -0.083 C 
ATOM     48  C   UNL     1     143.689 172.360 188.834  0.00  0.00    -0.059 C 
ATOM     49  H   UNL     1     144.237 179.619 186.923  0.00  0.00    +0.074 HD
ATOM     50  H   UNL     1     142.753 175.588 188.149  0.00  0.00    +0.069 HD
ATOM     51  H   UNL     1     141.204 177.687 189.800  0.00  0.00    +0.062 HD
ATOM     52  H   UNL     1     142.832 174.620 190.358  0.00  0.00    +0.058 HD
ATOM     53  H   UNL     1     140.655 173.392 191.958  0.00  0.00    +0.033 HD
ATOM     54  H   UNL     1     142.257 172.821 191.658  0.00  0.00    +0.033 HD
ATOM     55  H   UNL     1     139.706 172.191 190.291  0.00  0.00    +0.060 HD
ATOM     56  H   UNL     1     140.920 173.265 188.341  0.00  0.00    +0.032 HD
ATOM     57  H   UNL     1     140.363 171.641 188.175  0.00  0.00    +0.032 HD
ATOM     58  H   UNL     1     142.523 170.671 188.297  0.00  0.00    +0.064 HD
ATOM     59  H   UNL     1     143.436 172.345 185.042  0.00  0.00    +0.060 HD
ATOM     60  H   UNL     1     143.381 169.948 185.684  0.00  0.00    +0.032 HD
ATOM     61  H   UNL     1     144.477 170.247 187.001  0.00  0.00    +0.032 HD
ATOM     62  H   UNL     1     146.287 170.914 185.384  0.00  0.00    +0.060 HD
ATOM     63  H   UNL     1     144.761 168.327 184.886  0.00  0.00    +0.035 HD
ATOM     64  H   UNL     1     147.623 168.227 185.767  0.00  0.00    +0.060 HD
ATOM     65  H   UNL     1     146.871 166.509 187.271  0.00  0.00    +0.032 HD
ATOM     66  H   UNL     1     146.253 166.162 185.650  0.00  0.00    +0.032 HD
ATOM     67  H   UNL     1     144.415 167.805 187.316  0.00  0.00    +0.060 HD
ATOM     68  H   UNL     1     145.556 165.995 188.910  0.00  0.00    +0.036 HD
ATOM     69  H   UNL     1     142.887 165.504 189.665  0.00  0.00    +0.074 HD
ATOM     70  H   UNL     1     141.391 168.828 187.282  0.00  0.00    +0.069 HD
ATOM     71  H   UNL     1     139.511 166.570 186.342  0.00  0.00    +0.062 HD
ATOM     72  H   UNL     1     141.118 169.413 184.865  0.00  0.00    +0.058 HD
ATOM     73  H   UNL     1     140.272 170.515 182.965  0.00  0.00    +0.033 HD
ATOM     74  H   UNL     1     138.629 170.041 183.265  0.00  0.00    +0.033 HD
ATOM     75  H   UNL     1     139.195 171.706 185.502  0.00  0.00    +0.060 HD
ATOM     76  H   UNL     1     141.317 172.392 184.165  0.00  0.00    +0.032 HD
ATOM     77  H   UNL     1     140.237 173.100 182.979  0.00  0.00    +0.032 HD
ATOM     78  H   UNL     1     140.131 173.823 185.946  0.00  0.00    +0.064 HD
ATOM     79  H   UNL     1     141.560 175.131 182.800  0.00  0.00    +0.060 HD
ATOM     80  H   UNL     1     143.224 176.696 184.824  0.00  0.00    +0.032 HD
ATOM     81  H   UNL     1     143.794 175.438 183.761  0.00  0.00    +0.032 HD
ATOM     82  H   UNL     1     142.724 178.134 182.749  0.00  0.00    +0.060 HD
ATOM     83  H   UNL     1     145.557 177.024 182.943  0.00  0.00    +0.035 HD
ATOM     84  H   UNL     1     144.703 178.152 185.078  0.00  0.00    +0.060 HD
ATOM     85  H   UNL     1     145.189 180.702 183.465  0.00  0.00    +0.032 HD
ATOM     86  H   UNL     1     145.356 180.600 185.185  0.00  0.00    +0.032 HD
ATOM     87  H   UNL     1     143.307 181.665 184.759  0.00  0.00    +0.060 HD
ATOM     88  H   UNL     1     142.531 178.787 185.345  0.00  0.00    +0.036 HD
ATOM     89  H   UNL     1     140.583 177.409 182.898  0.00  0.00    +0.033 HD
ATOM     90  H   UNL     1     140.809 177.475 184.652  0.00  0.00    +0.033 HD
ATOM     91  H   UNL     1     138.364 176.859 183.821  0.00  0.00    +0.057 HD
ATOM     92  H   UNL     1     138.086 174.621 184.702  0.00  0.00    +0.059 HD
ATOM     93  H   UNL     1     144.248 174.077 186.418  0.00  0.00    +0.033 HD
ATOM     94  H   UNL     1     145.618 172.982 186.246  0.00  0.00    +0.033 HD
ATOM     95  H   UNL     1     145.529 173.391 188.677  0.00  0.00    +0.057 HD
ATOM     96  H   UNL     1     143.789 172.229 189.905  0.00  0.00    +0.059 HD
ENDROOT
BRANCH  28  97
ATOM     97  C   UNL     1     137.797 168.438 185.432  0.00  0.00    -0.040 C 
ATOM     98  H   UNL     1     137.442 167.777 184.638  0.00  0.00    +0.028 HD
ATOM     99  H   UNL     1     137.404 168.059 186.382  0.00  0.00    +0.028 HD
ATOM    100  H   UNL     1     137.352 169.422 185.242  0.00  0.00    +0.028 HD
ENDBRANCH  28  97
BRANCH  21 101
ATOM    101  C   UNL     1     144.454 164.424 188.055  0.00  0.00    -0.057 C 
ATOM    102  H   UNL     1     144.323 163.827 188.963  0.00  0.00    +0.023 HD
ATOM    103  H   UNL     1     145.343 164.046 187.538  0.00  0.00    +0.023 HD
ATOM    104  H   UNL     1     143.595 164.246 187.400  0.00  0.00    +0.023 HD
ENDBRANCH  21 101
BRANCH  42 105
ATOM    105  C   UNL     1     141.041 180.210 185.609  0.00  0.00    -0.057 C 
ATOM    106  H   UNL     1     140.787 180.711 184.668  0.00  0.00    +0.023 HD
ATOM    107  H   UNL     1     140.401 179.325 185.687  0.00  0.00    +0.023 HD
ATOM    108  H   UNL     1     140.780 180.915 186.401  0.00  0.00    +0.023 HD
ENDBRANCH  42 105
BRANCH  17 109
ATOM    109  C   UNL     1     146.405 168.480 183.596  0.00  0.00    -0.058 C 
ATOM    110  H   UNL     1     145.911 168.964 182.749  0.00  0.00    +0.023 HD
ATOM    111  H   UNL     1     146.395 167.398 183.427  0.00  0.00    +0.023 HD
ATOM    112  H   UNL     1     147.456 168.790 183.595  0.00  0.00    +0.023 HD
ENDBRANCH  17 109
BRANCH  38 113
ATOM    113  C   UNL     1     145.360 178.700 181.699  0.00  0.00    -0.058 C 
ATOM    114  H   UNL     1     146.148 178.174 181.153  0.00  0.00    +0.023 HD
ATOM    115  H   UNL     1     144.530 178.888 181.007  0.00  0.00    +0.023 HD
ATOM    116  H   UNL     1     145.748 179.680 181.995  0.00  0.00    +0.023 HD
ENDBRANCH  38 113
BRANCH   7 117
ATOM    117  C   UNL     1     139.473 175.579 190.334  0.00  0.00    -0.040 C 
ATOM    118  H   UNL     1     139.141 176.606 190.505  0.00  0.00    +0.028 HD
ATOM    119  H   UNL     1     139.148 174.982 191.189  0.00  0.00    +0.028 HD
ATOM    120  H   UNL     1     138.953 175.190 189.451  0.00  0.00    +0.028 HD
ENDBRANCH   7 117
BRANCH   1 121
ATOM    121  C   UNL     1     143.248 181.241 187.824  0.00  0.00    +0.020 C 
ATOM    122  H   UNL     1     142.724 181.975 187.197  0.00  0.00    +0.036 HD
BRANCH 121 123
ATOM    123  C   UNL     1     142.539 181.279 189.175  0.00  0.00    -0.057 C 
ATOM    124  H   UNL     1     142.338 180.278 189.561  0.00  0.00    +0.023 HD
ATOM    125  H   UNL     1     143.132 181.831 189.911  0.00  0.00    +0.023 HD
ATOM    126  H   UNL     1     141.598 181.829 189.114  0.00  0.00    +0.023 HD
ENDBRANCH 121 123
BRANCH 121 127
ATOM    127  C   UNL     1     144.728 181.735 187.939  0.00  0.00    +0.064 C 
ATOM    128  H   UNL     1     145.022 182.084 186.941  0.00  0.00    +0.060 HD
BRANCH 127 129
ATOM    129  C   UNL     1     145.789 180.707 188.459  0.00  0.00    -0.017 C 
ATOM    130  H   UNL     1     145.322 179.721 188.522  0.00  0.00    +0.032 HD
BRANCH 129 131
ATOM    131  C   UNL     1     146.915 180.589 187.418  0.00  0.00    -0.060 C 
ATOM    132  H   UNL     1     147.891 180.814 187.861  0.00  0.00    +0.023 HD
ATOM    133  H   UNL     1     146.754 181.285 186.586  0.00  0.00    +0.023 HD
ATOM    134  H   UNL     1     146.958 179.583 186.988  0.00  0.00    +0.023 HD
ENDBRANCH 129 131
BRANCH 129 135
ATOM    135  C   UNL     1     146.390 181.068 189.838  0.00  0.00    -0.046 C 
ATOM    136  H   UNL     1     146.287 180.227 190.529  0.00  0.00    +0.027 HD
ATOM    137  H   UNL     1     145.813 181.890 190.283  0.00  0.00    +0.027 HD
BRANCH 135 138
ATOM    138  C   UNL     1     147.868 181.498 189.841  0.00  0.00    -0.026 C 
ATOM    139  H   UNL     1     148.279 181.202 188.865  0.00  0.00    +0.029 HD
ATOM    140  H   UNL     1     148.425 180.926 190.592  0.00  0.00    +0.029 HD
BRANCH 138 143
ATOM    141  C   UNL     1     146.864 185.027 190.512  0.00  0.00    +0.059 C 
ATOM    142  O   UNL     1     146.926 183.596 190.562  0.00  0.00    -0.373 OA
ATOM    143  C   UNL     1     148.115 183.002 190.037  0.00  0.00    +0.061 C 
ATOM    144  C   UNL     1     148.512 183.652 188.709  0.00  0.00    -0.000 C 
ATOM    145  C   UNL     1     148.749 185.159 188.871  0.00  0.00    +0.063 C 
ATOM    146  C   UNL     1     148.206 185.678 190.203  0.00  0.00    -0.000 C 
ATOM    147  H   UNL     1     146.144 185.284 189.726  0.00  0.00    +0.059 HD
ATOM    148  H   UNL     1     148.922 183.133 190.766  0.00  0.00    +0.060 HD
ATOM    149  H   UNL     1     149.390 183.147 188.293  0.00  0.00    +0.032 HD
ATOM    150  H   UNL     1     147.687 183.520 187.997  0.00  0.00    +0.032 HD
ATOM    151  H   UNL     1     148.244 185.696 188.056  0.00  0.00    +0.060 HD
ATOM    152  H   UNL     1     148.116 186.770 190.163  0.00  0.00    +0.032 HD
ATOM    153  H   UNL     1     148.922 185.466 191.004  0.00  0.00    +0.032 HD
BRANCH 141 154
ATOM    154  C   UNL     1     146.311 185.516 191.844  0.00  0.00    -0.039 C 
ATOM    155  H   UNL     1     146.686 186.515 192.087  0.00  0.00    +0.025 HD
ATOM    156  H   UNL     1     145.217 185.551 191.818  0.00  0.00    +0.025 HD
ATOM    157  H   UNL     1     146.587 184.834 192.655  0.00  0.00    +0.025 HD
ENDBRANCH 141 154
BRANCH 145 158
ATOM    158  O   UNL     1     150.147 185.467 188.832  0.00  0.00    -0.380 OA
BRANCH 158 159
ATOM    159  C   UNL     1     150.679 185.501 187.514  0.00  0.00    +0.037 C 
ATOM    160  H   UNL     1     150.939 186.538 187.279  0.00  0.00    +0.052 HD
ATOM    161  H   UNL     1     151.581 184.890 187.431  0.00  0.00    +0.052 HD
ATOM    162  H   UNL     1     149.927 185.160 186.795  0.00  0.00    +0.052 HD
ENDBRANCH 158 159
ENDBRANCH 145 158
ENDBRANCH 138 143
ENDBRANCH 135 138
ENDBRANCH 129 135
ENDBRANCH 127 129
BRANCH 127 163
ATOM    163  O   UNL     1     144.730 182.908 188.764  0.00  0.00    -0.391 OA
ATOM    164  H   UNL     1     144.071 182.766 189.466  0.00  0.00    +0.210 HD
ENDBRANCH 127 163
ENDBRANCH 121 127
ENDBRANCH   1 121
BRANCH  41 165
ATOM    165  O   UNL     1     142.655 180.437 183.277  0.00  0.00    -0.391 OA
ATOM    166  H   UNL     1     142.988 181.132 182.685  0.00  0.00    +0.210 HD
ENDBRANCH  41 165
BRANCH  39 167
ATOM    167  O   UNL     1     146.570 178.631 184.484  0.00  0.00    -0.391 OA
ATOM    168  H   UNL     1     146.721 179.073 185.338  0.00  0.00    +0.210 HD
ENDBRANCH  39 167
BRANCH  31 169
ATOM    169  O   UNL     1     137.970 172.257 183.969  0.00  0.00    -0.391 OA
ATOM    170  H   UNL     1     138.124 172.884 183.238  0.00  0.00    +0.210 HD
ENDBRANCH  31 169
BRANCH  22 171
ATOM    171  C   UNL     1     144.027 167.020 190.681  0.00  0.00    +0.020 C 
ATOM    172  H   UNL     1     144.780 166.318 191.065  0.00  0.00    +0.036 HD
BRANCH 171 173
ATOM    173  C   UNL     1     144.735 168.336 190.295  0.00  0.00    -0.057 C 
ATOM    174  H   UNL     1     144.402 169.172 190.919  0.00  0.00    +0.023 HD
ATOM    175  H   UNL     1     145.821 168.257 190.399  0.00  0.00    +0.023 HD
ATOM    176  H   UNL     1     144.513 168.643 189.274  0.00  0.00    +0.023 HD
ENDBRANCH 171 173
BRANCH 171 177
ATOM    177  C   UNL     1     142.962 167.220 191.810  0.00  0.00    +0.064 C 
ATOM    178  H   UNL     1     142.612 168.260 191.776  0.00  0.00    +0.060 HD
BRANCH 177 179
ATOM    179  O   UNL     1     141.843 166.382 191.522  0.00  0.00    -0.391 OA
ATOM    180  H   UNL     1     142.170 165.508 191.223  0.00  0.00    +0.210 HD
ENDBRANCH 177 179
BRANCH 177 181
ATOM    181  C   UNL     1     143.373 166.890 193.282  0.00  0.00    -0.017 C 
ATOM    182  H   UNL     1     144.022 167.699 193.641  0.00  0.00    +0.032 HD
BRANCH 181 183
ATOM    183  C   UNL     1     142.201 166.778 194.255  0.00  0.00    -0.060 C 
ATOM    184  H   UNL     1     141.782 167.766 194.463  0.00  0.00    +0.023 HD
ATOM    185  H   UNL     1     142.506 166.402 195.235  0.00  0.00    +0.023 HD
ATOM    186  H   UNL     1     141.419 166.118 193.868  0.00  0.00    +0.023 HD
ENDBRANCH 181 183
BRANCH 181 187
ATOM    187  C   UNL     1     144.242 165.595 193.288  0.00  0.00    -0.046 C 
ATOM    188  H   UNL     1     144.361 165.242 192.256  0.00  0.00    +0.027 HD
ATOM    189  H   UNL     1     143.706 164.804 193.829  0.00  0.00    +0.027 HD
BRANCH 187 190
ATOM    190  C   UNL     1     145.639 165.758 193.903  0.00  0.00    -0.026 C 
ATOM    191  H   UNL     1     145.566 166.296 194.856  0.00  0.00    +0.029 HD
ATOM    192  H   UNL     1     146.043 164.758 194.109  0.00  0.00    +0.029 HD
BRANCH 190 193
ATOM    193  C   UNL     1     146.621 166.493 192.978  0.00  0.00    +0.061 C 
ATOM    194  O   UNL     1     147.527 165.534 192.422  0.00  0.00    -0.373 OA
ATOM    195  C   UNL     1     148.489 166.087 191.519  0.00  0.00    +0.059 C 
ATOM    196  C   UNL     1     149.313 167.189 192.194  0.00  0.00    -0.000 C 
ATOM    197  C   UNL     1     148.452 168.234 192.906  0.00  0.00    +0.063 C 
ATOM    198  C   UNL     1     147.398 167.547 193.772  0.00  0.00    -0.000 C 
ATOM    199  H   UNL     1     146.043 166.965 192.174  0.00  0.00    +0.060 HD
ATOM    200  H   UNL     1     149.179 165.265 191.287  0.00  0.00    +0.059 HD
ATOM    201  H   UNL     1     149.988 167.647 191.466  0.00  0.00    +0.032 HD
ATOM    202  H   UNL     1     149.941 166.711 192.959  0.00  0.00    +0.032 HD
ATOM    203  H   UNL     1     149.083 168.851 193.559  0.00  0.00    +0.060 HD
ATOM    204  H   UNL     1     146.702 168.290 194.180  0.00  0.00    +0.032 HD
ATOM    205  H   UNL     1     147.909 167.064 194.614  0.00  0.00    +0.032 HD
BRANCH 195 206
ATOM    206  C   UNL     1     147.856 166.500 190.192  0.00  0.00    -0.039 C 
ATOM    207  H   UNL     1     148.091 167.547 189.972  0.00  0.00    +0.025 HD
ATOM    208  H   UNL     1     146.768 166.388 190.228  0.00  0.00    +0.025 HD
ATOM    209  H   UNL     1     148.226 165.919 189.343  0.00  0.00    +0.025 HD
ENDBRANCH 195 206
BRANCH 197 210
ATOM    210  O   UNL     1     147.775 169.089 191.979  0.00  0.00    -0.380 OA
BRANCH 210 211
ATOM    211  C   UNL     1     148.602 170.111 191.441  0.00  0.00    +0.037 C 
ATOM    212  H   UNL     1     149.573 169.673 191.198  0.00  0.00    +0.052 HD
ATOM    213  H   UNL     1     148.164 170.512 190.522  0.00  0.00    +0.052 HD
ATOM    214  H   UNL     1     148.760 170.917 192.163  0.00  0.00    +0.052 HD
ENDBRANCH 210 211
ENDBRANCH 197 210
ENDBRANCH 190 193
ENDBRANCH 187 190
ENDBRANCH 181 187
ENDBRANCH 177 181
ENDBRANCH 171 177
ENDBRANCH  22 171
BRANCH  20 215
ATOM    215  O   UNL     1     143.824 166.341 186.068  0.00  0.00    -0.391 OA
ATOM    216  H   UNL     1     144.333 165.950 185.339  0.00  0.00    +0.210 HD
ENDBRANCH  20 215
BRANCH  18 217
ATOM    217  O   UNL     1     146.575 169.091 187.264  0.00  0.00    -0.391 OA
ATOM    218  H   UNL     1     146.197 169.952 187.004  0.00  0.00    +0.210 HD
ENDBRANCH  18 217
BRANCH  10 219
ATOM    219  O   UNL     1     141.175 170.853 190.705  0.00  0.00    -0.391 OA
ATOM    220  H   UNL     1     141.693 170.395 190.021  0.00  0.00    +0.210 HD
ENDBRANCH  10 219
BRANCH  37 221
ATOM    221  O   UNL     1     143.399 176.619 181.483  0.00  0.00    -0.379 OA
BRANCH 221 222
ATOM    222  C   UNL     1     142.443 177.151 180.575  0.00  0.00    +0.037 C 
ATOM    223  H   UNL     1     141.935 176.315 180.087  0.00  0.00    +0.052 HD
ATOM    224  H   UNL     1     141.696 177.736 181.117  0.00  0.00    +0.052 HD
ATOM    225  H   UNL     1     142.918 177.768 179.807  0.00  0.00    +0.052 HD
ENDBRANCH 221 222
ENDBRANCH  37 221
BRANCH  16 226
ATOM    226  O   UNL     1     144.985 170.849 183.748  0.00  0.00    -0.379 OA
BRANCH 226 227
ATOM    227  C   UNL     1     145.792 171.912 183.254  0.00  0.00    +0.037 C 
ATOM    228  H   UNL     1     146.032 171.705 182.208  0.00  0.00    +0.052 HD
ATOM    229  H   UNL     1     145.251 172.861 183.305  0.00  0.00    +0.052 HD
ATOM    230  H   UNL     1     146.727 171.982 183.819  0.00  0.00    +0.052 HD
ENDBRANCH 226 227
ENDBRANCH  16 226
TORSDOF 40
ENDMDL
MODEL 8
REMARK VINA RESULT:      -5.3      5.142      9.126
REMARK  Name = Swinholide A_conf3
REMARK  40 active torsions:
REMARK  status: ('A' for Active; 'I' for Inactive)
REMARK    1  A    between atoms: C_1  and  C_2
REMARK    2  A    between atoms: C_4  and  C_10
REMARK    3  A    between atoms: C_6  and  O_8
REMARK    4  A    between atoms: O_8  and  C_9
REMARK    5  A    between atoms: C_10  and  C_11
REMARK    6  A    between atoms: C_11  and  C_12
REMARK    7  A    between atoms: C_12  and  C_13
REMARK    8  A    between atoms: C_12  and  C_98
REMARK    9  A    between atoms: C_13  and  O_14
REMARK   10  A    between atoms: C_13  and  C_15
REMARK   11  A    between atoms: C_15  and  C_16
REMARK   12  A    between atoms: C_15  and  C_97
REMARK   13  A    between atoms: C_22  and  C_96
REMARK   14  A    between atoms: C_25  and  O_95
REMARK   15  A    between atoms: C_31  and  O_90
REMARK   16  A    between atoms: C_32  and  C_89
REMARK   17  A    between atoms: C_33  and  O_88
REMARK   18  A    between atoms: C_35  and  O_87
REMARK   19  A    between atoms: C_36  and  C_86
REMARK   20  A    between atoms: C_37  and  C_69
REMARK   21  A    between atoms: C_43  and  C_68
REMARK   22  A    between atoms: C_46  and  O_67
REMARK   23  A    between atoms: C_52  and  O_62
REMARK   24  A    between atoms: C_53  and  C_61
REMARK   25  A    between atoms: C_54  and  O_60
REMARK   26  A    between atoms: C_56  and  O_59
REMARK   27  A    between atoms: C_57  and  C_58
REMARK   28  A    between atoms: O_62  and  C_63
REMARK   29  A    between atoms: C_69  and  C_70
REMARK   30  A    between atoms: C_69  and  C_85
REMARK   31  A    between atoms: C_70  and  O_71
REMARK   32  A    between atoms: C_70  and  C_72
REMARK   33  A    between atoms: C_72  and  C_73
REMARK   34  A    between atoms: C_72  and  C_84
REMARK   35  A    between atoms: C_73  and  C_74
REMARK   36  A    between atoms: C_74  and  C_75
REMARK   37  A    between atoms: C_77  and  C_83
REMARK   38  A    between atoms: C_79  and  O_81
REMARK   39  A    between atoms: O_81  and  C_82
REMARK   40  A    between atoms: O_90  and  C_91
REMARK                            x       y       z     vdW  Elec       q    Type
REMARK                         _______ _______ _______ _____ _____    ______ ____
ROOT
ATOM      1  C   UNL     1     148.071 166.516 188.080  0.00  0.00    +0.113 C 
ATOM      2  O   UNL     1     147.774 167.357 186.934  0.00  0.00    -0.458 OA
ATOM      3  C   UNL     1     147.248 168.572 187.245  0.00  0.00    +0.332 C 
ATOM      4  O   UNL     1     147.116 169.031 188.371  0.00  0.00    -0.246 OA
ATOM      5  C   UNL     1     146.792 169.339 186.082  0.00  0.00    +0.023 C 
ATOM      6  C   UNL     1     147.224 169.219 184.819  0.00  0.00    -0.052 C 
ATOM      7  C   UNL     1     146.780 170.134 183.771  0.00  0.00    -0.054 C 
ATOM      8  C   UNL     1     146.732 171.460 184.010  0.00  0.00    -0.079 C 
ATOM      9  C   UNL     1     146.234 172.555 183.114  0.00  0.00    -0.008 C 
ATOM     10  C   UNL     1     144.702 172.732 183.012  0.00  0.00    +0.061 C 
ATOM     11  C   UNL     1     143.836 172.170 184.147  0.00  0.00    +0.003 C 
ATOM     12  C   UNL     1     143.681 172.971 185.450  0.00  0.00    +0.080 C 
ATOM     13  O   UNL     1     142.836 172.133 186.266  0.00  0.00    -0.369 OA
ATOM     14  C   UNL     1     142.803 172.444 187.670  0.00  0.00    +0.065 C 
ATOM     15  C   UNL     1     142.094 173.791 187.892  0.00  0.00    +0.000 C 
ATOM     16  C   UNL     1     141.730 174.118 189.354  0.00  0.00    +0.066 C 
ATOM     17  C   UNL     1     140.855 175.405 189.410  0.00  0.00    +0.009 C 
ATOM     18  C   UNL     1     141.643 176.744 189.317  0.00  0.00    +0.063 C 
ATOM     19  C   UNL     1     140.912 177.831 188.493  0.00  0.00    -0.000 C 
ATOM     20  C   UNL     1     140.750 177.437 187.007  0.00  0.00    +0.064 C 
ATOM     21  C   UNL     1     141.084 178.592 186.025  0.00  0.00    +0.020 C 
ATOM     22  C   UNL     1     141.627 178.110 184.632  0.00  0.00    +0.113 C 
ATOM     23  O   UNL     1     141.404 176.702 184.429  0.00  0.00    -0.458 OA
ATOM     24  C   UNL     1     140.208 176.339 183.906  0.00  0.00    +0.332 C 
ATOM     25  O   UNL     1     139.384 177.073 183.385  0.00  0.00    -0.246 OA
ATOM     26  C   UNL     1     140.060 174.882 184.099  0.00  0.00    +0.023 C 
ATOM     27  C   UNL     1     138.931 174.264 183.721  0.00  0.00    -0.052 C 
ATOM     28  C   UNL     1     138.658 172.845 183.903  0.00  0.00    -0.054 C 
ATOM     29  C   UNL     1     138.951 172.214 185.058  0.00  0.00    -0.079 C 
ATOM     30  C   UNL     1     138.668 170.775 185.404  0.00  0.00    -0.008 C 
ATOM     31  C   UNL     1     139.849 169.849 185.054  0.00  0.00    +0.061 C 
ATOM     32  C   UNL     1     140.619 169.394 186.303  0.00  0.00    +0.003 C 
ATOM     33  C   UNL     1     141.963 168.721 185.974  0.00  0.00    +0.080 C 
ATOM     34  O   UNL     1     142.830 168.748 187.127  0.00  0.00    -0.369 OA
ATOM     35  C   UNL     1     142.637 167.661 188.054  0.00  0.00    +0.065 C 
ATOM     36  C   UNL     1     143.586 167.926 189.242  0.00  0.00    +0.000 C 
ATOM     37  C   UNL     1     143.588 166.835 190.335  0.00  0.00    +0.066 C 
ATOM     38  C   UNL     1     144.605 167.141 191.476  0.00  0.00    +0.009 C 
ATOM     39  C   UNL     1     146.100 167.202 191.056  0.00  0.00    +0.063 C 
ATOM     40  C   UNL     1     146.945 165.912 190.974  0.00  0.00    -0.000 C 
ATOM     41  C   UNL     1     146.777 164.982 189.763  0.00  0.00    +0.064 C 
ATOM     42  C   UNL     1     146.803 165.654 188.372  0.00  0.00    +0.020 C 
ATOM     43  C   UNL     1     142.962 166.338 187.344  0.00  0.00    -0.008 C 
ATOM     44  C   UNL     1     142.271 166.230 186.025  0.00  0.00    -0.083 C 
ATOM     45  C   UNL     1     141.822 167.328 185.407  0.00  0.00    -0.059 C 
ATOM     46  C   UNL     1     144.216 172.326 188.257  0.00  0.00    -0.008 C 
ATOM     47  C   UNL     1     145.226 173.051 187.427  0.00  0.00    -0.083 C 
ATOM     48  C   UNL     1     144.961 173.348 186.146  0.00  0.00    -0.059 C 
ATOM     49  H   UNL     1     148.212 167.166 188.951  0.00  0.00    +0.074 HD
ATOM     50  H   UNL     1     146.080 170.113 186.356  0.00  0.00    +0.069 HD
ATOM     51  H   UNL     1     147.928 168.441 184.535  0.00  0.00    +0.062 HD
ATOM     52  H   UNL     1     147.077 171.824 184.978  0.00  0.00    +0.058 HD
ATOM     53  H   UNL     1     146.642 172.421 182.104  0.00  0.00    +0.033 HD
ATOM     54  H   UNL     1     146.687 173.495 183.456  0.00  0.00    +0.033 HD
ATOM     55  H   UNL     1     144.389 172.212 182.097  0.00  0.00    +0.060 HD
ATOM     56  H   UNL     1     144.123 171.136 184.377  0.00  0.00    +0.032 HD
ATOM     57  H   UNL     1     142.816 172.066 183.745  0.00  0.00    +0.032 HD
ATOM     58  H   UNL     1     143.125 173.888 185.230  0.00  0.00    +0.064 HD
ATOM     59  H   UNL     1     142.192 171.658 188.126  0.00  0.00    +0.060 HD
ATOM     60  H   UNL     1     141.173 173.763 187.294  0.00  0.00    +0.032 HD
ATOM     61  H   UNL     1     142.691 174.596 187.463  0.00  0.00    +0.032 HD
ATOM     62  H   UNL     1     142.636 174.256 189.956  0.00  0.00    +0.060 HD
ATOM     63  H   UNL     1     140.150 175.339 188.573  0.00  0.00    +0.035 HD
ATOM     64  H   UNL     1     141.782 177.133 190.334  0.00  0.00    +0.060 HD
ATOM     65  H   UNL     1     141.518 178.742 188.567  0.00  0.00    +0.032 HD
ATOM     66  H   UNL     1     139.937 178.044 188.948  0.00  0.00    +0.032 HD
ATOM     67  H   UNL     1     141.413 176.597 186.806  0.00  0.00    +0.060 HD
ATOM     68  H   UNL     1     141.866 179.206 186.484  0.00  0.00    +0.036 HD
ATOM     69  H   UNL     1     141.099 178.646 183.831  0.00  0.00    +0.074 HD
ATOM     70  H   UNL     1     140.873 174.364 184.590  0.00  0.00    +0.069 HD
ATOM     71  H   UNL     1     138.142 174.841 183.236  0.00  0.00    +0.062 HD
ATOM     72  H   UNL     1     139.426 172.772 185.866  0.00  0.00    +0.058 HD
ATOM     73  H   UNL     1     138.440 170.724 186.477  0.00  0.00    +0.033 HD
ATOM     74  H   UNL     1     137.748 170.444 184.909  0.00  0.00    +0.033 HD
ATOM     75  H   UNL     1     140.538 170.350 184.363  0.00  0.00    +0.060 HD
ATOM     76  H   UNL     1     140.809 170.258 186.947  0.00  0.00    +0.032 HD
ATOM     77  H   UNL     1     139.998 168.704 186.892  0.00  0.00    +0.032 HD
ATOM     78  H   UNL     1     142.481 169.331 185.224  0.00  0.00    +0.064 HD
ATOM     79  H   UNL     1     141.597 167.674 188.405  0.00  0.00    +0.060 HD
ATOM     80  H   UNL     1     144.590 168.085 188.841  0.00  0.00    +0.032 HD
ATOM     81  H   UNL     1     143.296 168.888 189.689  0.00  0.00    +0.032 HD
ATOM     82  H   UNL     1     143.813 165.867 189.887  0.00  0.00    +0.060 HD
ATOM     83  H   UNL     1     144.340 168.144 191.845  0.00  0.00    +0.035 HD
ATOM     84  H   UNL     1     146.203 167.756 190.129  0.00  0.00    +0.060 HD
ATOM     85  H   UNL     1     146.793 165.330 191.892  0.00  0.00    +0.032 HD
ATOM     86  H   UNL     1     148.003 166.205 191.016  0.00  0.00    +0.032 HD
ATOM     87  H   UNL     1     147.579 164.235 189.811  0.00  0.00    +0.060 HD
ATOM     88  H   UNL     1     145.960 166.352 188.352  0.00  0.00    +0.036 HD
ATOM     89  H   UNL     1     142.677 165.485 187.966  0.00  0.00    +0.033 HD
ATOM     90  H   UNL     1     144.034 166.272 187.147  0.00  0.00    +0.033 HD
ATOM     91  H   UNL     1     142.161 165.252 185.567  0.00  0.00    +0.057 HD
ATOM     92  H   UNL     1     141.323 167.228 184.447  0.00  0.00    +0.059 HD
ATOM     93  H   UNL     1     144.511 171.269 188.284  0.00  0.00    +0.033 HD
ATOM     94  H   UNL     1     144.241 172.693 189.286  0.00  0.00    +0.033 HD
ATOM     95  H   UNL     1     146.163 173.348 187.886  0.00  0.00    +0.057 HD
ATOM     96  H   UNL     1     145.672 173.944 185.586  0.00  0.00    +0.059 HD
ENDROOT
BRANCH  28  97
ATOM     97  C   UNL     1     137.990 172.202 182.717  0.00  0.00    -0.040 C 
ATOM     98  H   UNL     1     137.726 171.156 182.886  0.00  0.00    +0.028 HD
ATOM     99  H   UNL     1     137.071 172.739 182.455  0.00  0.00    +0.028 HD
ATOM    100  H   UNL     1     138.660 172.220 181.850  0.00  0.00    +0.028 HD
ENDBRANCH  28  97
BRANCH  21 101
ATOM    101  C   UNL     1     139.902 179.552 185.822  0.00  0.00    -0.057 C 
ATOM    102  H   UNL     1     138.958 179.016 185.688  0.00  0.00    +0.023 HD
ATOM    103  H   UNL     1     140.059 180.172 184.932  0.00  0.00    +0.023 HD
ATOM    104  H   UNL     1     139.795 180.229 186.677  0.00  0.00    +0.023 HD
ENDBRANCH  21 101
BRANCH  42 105
ATOM    105  C   UNL     1     146.448 164.654 187.258  0.00  0.00    -0.057 C 
ATOM    106  H   UNL     1     146.904 163.679 187.460  0.00  0.00    +0.023 HD
ATOM    107  H   UNL     1     145.367 164.495 187.182  0.00  0.00    +0.023 HD
ATOM    108  H   UNL     1     146.835 164.968 186.287  0.00  0.00    +0.023 HD
ENDBRANCH  42 105
BRANCH  17 109
ATOM    109  C   UNL     1     139.952 175.456 190.656  0.00  0.00    -0.058 C 
ATOM    110  H   UNL     1     138.968 175.869 190.417  0.00  0.00    +0.023 HD
ATOM    111  H   UNL     1     140.398 176.066 191.449  0.00  0.00    +0.023 HD
ATOM    112  H   UNL     1     139.804 174.454 191.075  0.00  0.00    +0.023 HD
ENDBRANCH  17 109
BRANCH  38 113
ATOM    113  C   UNL     1     144.406 166.229 192.697  0.00  0.00    -0.058 C 
ATOM    114  H   UNL     1     143.441 165.713 192.659  0.00  0.00    +0.023 HD
ATOM    115  H   UNL     1     145.197 165.473 192.758  0.00  0.00    +0.023 HD
ATOM    116  H   UNL     1     144.447 166.803 193.628  0.00  0.00    +0.023 HD
ENDBRANCH  38 113
BRANCH   7 117
ATOM    117  C   UNL     1     146.380 169.487 182.477  0.00  0.00    -0.040 C 
ATOM    118  H   UNL     1     146.793 170.047 181.634  0.00  0.00    +0.028 HD
ATOM    119  H   UNL     1     145.296 169.449 182.344  0.00  0.00    +0.028 HD
ATOM    120  H   UNL     1     146.749 168.457 182.424  0.00  0.00    +0.028 HD
ENDBRANCH   7 117
BRANCH   1 121
ATOM    121  C   UNL     1     149.454 165.816 187.925  0.00  0.00    +0.020 C 
ATOM    122  H   UNL     1     149.311 164.779 188.254  0.00  0.00    +0.036 HD
BRANCH 121 123
ATOM    123  C   UNL     1     150.001 165.719 186.503  0.00  0.00    -0.057 C 
ATOM    124  H   UNL     1     149.221 165.472 185.780  0.00  0.00    +0.023 HD
ATOM    125  H   UNL     1     150.478 166.657 186.203  0.00  0.00    +0.023 HD
ATOM    126  H   UNL     1     150.795 164.973 186.433  0.00  0.00    +0.023 HD
ENDBRANCH 121 123
BRANCH 121 127
ATOM    127  C   UNL     1     150.502 166.450 188.899  0.00  0.00    +0.064 C 
ATOM    128  H   UNL     1     151.394 166.673 188.300  0.00  0.00    +0.060 HD
BRANCH 127 129
ATOM    129  C   UNL     1     150.919 165.608 190.151  0.00  0.00    -0.017 C 
ATOM    130  H   UNL     1     150.089 164.952 190.426  0.00  0.00    +0.032 HD
BRANCH 129 131
ATOM    131  C   UNL     1     152.089 164.689 189.762  0.00  0.00    -0.060 C 
ATOM    132  H   UNL     1     151.921 163.663 190.107  0.00  0.00    +0.023 HD
ATOM    133  H   UNL     1     153.028 165.043 190.205  0.00  0.00    +0.023 HD
ATOM    134  H   UNL     1     152.237 164.667 188.678  0.00  0.00    +0.023 HD
ENDBRANCH 129 131
BRANCH 129 135
ATOM    135  C   UNL     1     151.314 166.462 191.380  0.00  0.00    -0.046 C 
ATOM    136  H   UNL     1     151.899 167.331 191.066  0.00  0.00    +0.027 HD
ATOM    137  H   UNL     1     151.977 165.877 192.031  0.00  0.00    +0.027 HD
BRANCH 135 138
ATOM    138  C   UNL     1     150.153 166.970 192.253  0.00  0.00    -0.026 C 
ATOM    139  H   UNL     1     149.259 166.969 191.613  0.00  0.00    +0.029 HD
ATOM    140  H   UNL     1     150.324 168.015 192.537  0.00  0.00    +0.029 HD
BRANCH 138 143
ATOM    141  C   UNL     1     148.357 166.136 195.414  0.00  0.00    +0.059 C 
ATOM    142  O   UNL     1     148.629 166.584 194.080  0.00  0.00    -0.373 OA
ATOM    143  C   UNL     1     149.855 166.129 193.505  0.00  0.00    +0.061 C 
ATOM    144  C   UNL     1     151.007 166.242 194.506  0.00  0.00    -0.000 C 
ATOM    145  C   UNL     1     150.729 165.425 195.775  0.00  0.00    +0.063 C 
ATOM    146  C   UNL     1     149.265 164.998 195.864  0.00  0.00    -0.000 C 
ATOM    147  H   UNL     1     148.503 167.001 196.073  0.00  0.00    +0.059 HD
ATOM    148  H   UNL     1     149.731 165.083 193.203  0.00  0.00    +0.060 HD
ATOM    149  H   UNL     1     151.947 165.943 194.030  0.00  0.00    +0.032 HD
ATOM    150  H   UNL     1     151.107 167.293 194.804  0.00  0.00    +0.032 HD
ATOM    151  H   UNL     1     150.970 166.033 196.658  0.00  0.00    +0.060 HD
ATOM    152  H   UNL     1     149.033 164.690 196.891  0.00  0.00    +0.032 HD
ATOM    153  H   UNL     1     149.096 164.113 195.241  0.00  0.00    +0.032 HD
BRANCH 141 154
ATOM    154  C   UNL     1     146.891 165.728 195.478  0.00  0.00    -0.039 C 
ATOM    155  H   UNL     1     146.335 166.109 194.616  0.00  0.00    +0.025 HD
ATOM    156  H   UNL     1     146.796 164.638 195.501  0.00  0.00    +0.025 HD
ATOM    157  H   UNL     1     146.420 166.107 196.391  0.00  0.00    +0.025 HD
ENDBRANCH 141 154
BRANCH 145 158
ATOM    158  O   UNL     1     151.523 164.233 195.802  0.00  0.00    -0.380 OA
BRANCH 158 159
ATOM    159  C   UNL     1     151.048 163.263 196.728  0.00  0.00    +0.037 C 
ATOM    160  H   UNL     1     149.955 163.319 196.748  0.00  0.00    +0.052 HD
ATOM    161  H   UNL     1     151.337 162.252 196.430  0.00  0.00    +0.052 HD
ATOM    162  H   UNL     1     151.426 163.482 197.731  0.00  0.00    +0.052 HD
ENDBRANCH 158 159
ENDBRANCH 145 158
ENDBRANCH 138 143
ENDBRANCH 135 138
ENDBRANCH 129 135
ENDBRANCH 127 129
BRANCH 127 163
ATOM    163  O   UNL     1     149.994 167.728 189.307  0.00  0.00    -0.391 OA
ATOM    164  H   UNL     1     149.410 167.574 190.071  0.00  0.00    +0.210 HD
ENDBRANCH 127 163
ENDBRANCH 121 127
ENDBRANCH   1 121
BRANCH  41 165
ATOM    165  O   UNL     1     145.551 164.265 189.930  0.00  0.00    -0.391 OA
ATOM    166  H   UNL     1     145.721 163.338 189.692  0.00  0.00    +0.210 HD
ENDBRANCH  41 165
BRANCH  39 167
ATOM    167  O   UNL     1     146.775 168.015 192.046  0.00  0.00    -0.391 OA
ATOM    168  H   UNL     1     146.079 168.454 192.565  0.00  0.00    +0.210 HD
ENDBRANCH  39 167
BRANCH  31 169
ATOM    169  O   UNL     1     139.335 168.705 184.364  0.00  0.00    -0.391 OA
ATOM    170  H   UNL     1     139.147 168.024 185.036  0.00  0.00    +0.210 HD
ENDBRANCH  31 169
BRANCH  22 171
ATOM    171  C   UNL     1     143.157 178.430 184.421  0.00  0.00    +0.020 C 
ATOM    172  H   UNL     1     143.447 177.929 183.488  0.00  0.00    +0.036 HD
BRANCH 171 173
ATOM    173  C   UNL     1     143.282 179.955 184.220  0.00  0.00    -0.057 C 
ATOM    174  H   UNL     1     142.883 180.269 183.251  0.00  0.00    +0.023 HD
ATOM    175  H   UNL     1     142.746 180.510 184.996  0.00  0.00    +0.023 HD
ATOM    176  H   UNL     1     144.319 180.290 184.220  0.00  0.00    +0.023 HD
ENDBRANCH 171 173
BRANCH 171 177
ATOM    177  C   UNL     1     144.103 177.893 185.547  0.00  0.00    +0.064 C 
ATOM    178  H   UNL     1     143.993 178.538 186.429  0.00  0.00    +0.060 HD
BRANCH 177 179
ATOM    179  O   UNL     1     143.662 176.587 185.916  0.00  0.00    -0.391 OA
ATOM    180  H   UNL     1     144.440 176.047 186.165  0.00  0.00    +0.210 HD
ENDBRANCH 177 179
BRANCH 177 181
ATOM    181  C   UNL     1     145.626 177.754 185.229  0.00  0.00    -0.017 C 
ATOM    182  H   UNL     1     146.059 177.046 185.949  0.00  0.00    +0.032 HD
BRANCH 181 183
ATOM    183  C   UNL     1     145.933 177.226 183.829  0.00  0.00    -0.060 C 
ATOM    184  H   UNL     1     146.394 178.007 183.219  0.00  0.00    +0.023 HD
ATOM    185  H   UNL     1     145.028 176.952 183.279  0.00  0.00    +0.023 HD
ATOM    186  H   UNL     1     146.586 176.349 183.864  0.00  0.00    +0.023 HD
ENDBRANCH 181 183
BRANCH 181 187
ATOM    187  C   UNL     1     146.327 179.123 185.485  0.00  0.00    -0.046 C 
ATOM    188  H   UNL     1     146.159 179.776 184.620  0.00  0.00    +0.027 HD
ATOM    189  H   UNL     1     147.411 178.966 185.553  0.00  0.00    +0.027 HD
BRANCH 187 190
ATOM    190  C   UNL     1     145.853 179.866 186.743  0.00  0.00    -0.026 C 
ATOM    191  H   UNL     1     144.929 180.415 186.525  0.00  0.00    +0.029 HD
ATOM    192  H   UNL     1     145.628 179.121 187.518  0.00  0.00    +0.029 HD
BRANCH 190 193
ATOM    193  C   UNL     1     146.904 180.838 187.299  0.00  0.00    +0.061 C 
ATOM    194  O   UNL     1     146.295 181.628 188.325  0.00  0.00    -0.373 OA
ATOM    195  C   UNL     1     147.177 182.569 188.946  0.00  0.00    +0.059 C 
ATOM    196  C   UNL     1     147.791 183.518 187.912  0.00  0.00    -0.000 C 
ATOM    197  C   UNL     1     148.400 182.790 186.712  0.00  0.00    +0.063 C 
ATOM    198  C   UNL     1     147.421 181.745 186.179  0.00  0.00    -0.000 C 
ATOM    199  H   UNL     1     147.723 180.247 187.725  0.00  0.00    +0.060 HD
ATOM    200  H   UNL     1     146.541 183.177 189.604  0.00  0.00    +0.059 HD
ATOM    201  H   UNL     1     148.516 184.177 188.396  0.00  0.00    +0.032 HD
ATOM    202  H   UNL     1     146.983 184.156 187.527  0.00  0.00    +0.032 HD
ATOM    203  H   UNL     1     148.606 183.508 185.908  0.00  0.00    +0.060 HD
ATOM    204  H   UNL     1     147.903 181.137 185.404  0.00  0.00    +0.032 HD
ATOM    205  H   UNL     1     146.576 182.272 185.718  0.00  0.00    +0.032 HD
BRANCH 195 206
ATOM    206  C   UNL     1     148.196 181.884 189.853  0.00  0.00    -0.039 C 
ATOM    207  H   UNL     1     147.752 180.993 190.312  0.00  0.00    +0.025 HD
ATOM    208  H   UNL     1     148.523 182.558 190.650  0.00  0.00    +0.025 HD
ATOM    209  H   UNL     1     149.084 181.541 189.316  0.00  0.00    +0.025 HD
ENDBRANCH 195 206
BRANCH 197 210
ATOM    210  O   UNL     1     149.617 182.121 187.056  0.00  0.00    -0.380 OA
BRANCH 210 211
ATOM    211  C   UNL     1     150.785 182.837 186.675  0.00  0.00    +0.037 C 
ATOM    212  H   UNL     1     151.414 182.171 186.080  0.00  0.00    +0.052 HD
ATOM    213  H   UNL     1     150.518 183.702 186.061  0.00  0.00    +0.052 HD
ATOM    214  H   UNL     1     151.356 183.159 187.550  0.00  0.00    +0.052 HD
ENDBRANCH 210 211
ENDBRANCH 197 210
ENDBRANCH 190 193
ENDBRANCH 187 190
ENDBRANCH 181 187
ENDBRANCH 177 181
ENDBRANCH 171 177
ENDBRANCH  22 171
BRANCH  20 215
ATOM    215  O   UNL     1     139.428 176.936 186.798  0.00  0.00    -0.391 OA
ATOM    216  H   UNL     1     139.279 176.172 187.380  0.00  0.00    +0.210 HD
ENDBRANCH  20 215
BRANCH  18 217
ATOM    217  O   UNL     1     142.963 176.593 188.786  0.00  0.00    -0.391 OA
ATOM    218  H   UNL     1     143.305 177.491 188.619  0.00  0.00    +0.210 HD
ENDBRANCH  18 217
BRANCH  10 219
ATOM    219  O   UNL     1     144.422 174.117 182.798  0.00  0.00    -0.391 OA
ATOM    220  H   UNL     1     143.602 174.340 183.271  0.00  0.00    +0.210 HD
ENDBRANCH  10 219
BRANCH  37 221
ATOM    221  O   UNL     1     142.260 166.833 190.892  0.00  0.00    -0.379 OA
BRANCH 221 222
ATOM    222  C   UNL     1     141.879 168.083 191.451  0.00  0.00    +0.037 C 
ATOM    223  H   UNL     1     142.781 168.686 191.584  0.00  0.00    +0.052 HD
ATOM    224  H   UNL     1     141.211 168.613 190.767  0.00  0.00    +0.052 HD
ATOM    225  H   UNL     1     141.397 167.958 192.425  0.00  0.00    +0.052 HD
ENDBRANCH 221 222
ENDBRANCH  37 221
BRANCH  16 226
ATOM    226  O   UNL     1     140.958 173.010 189.848  0.00  0.00    -0.379 OA
BRANCH 226 227
ATOM    227  C   UNL     1     141.561 172.353 190.957  0.00  0.00    +0.037 C 
ATOM    228  H   UNL     1     142.266 173.045 191.426  0.00  0.00    +0.052 HD
ATOM    229  H   UNL     1     140.804 172.074 191.697  0.00  0.00    +0.052 HD
ATOM    230  H   UNL     1     142.110 171.465 190.630  0.00  0.00    +0.052 HD
ENDBRANCH 226 227
ENDBRANCH  16 226
TORSDOF 40
ENDMDL
MODEL 9
REMARK VINA RESULT:      -5.2      6.709     12.759
REMARK  Name = Swinholide A_conf3
REMARK  40 active torsions:
REMARK  status: ('A' for Active; 'I' for Inactive)
REMARK    1  A    between atoms: C_1  and  C_2
REMARK    2  A    between atoms: C_4  and  C_10
REMARK    3  A    between atoms: C_6  and  O_8
REMARK    4  A    between atoms: O_8  and  C_9
REMARK    5  A    between atoms: C_10  and  C_11
REMARK    6  A    between atoms: C_11  and  C_12
REMARK    7  A    between atoms: C_12  and  C_13
REMARK    8  A    between atoms: C_12  and  C_98
REMARK    9  A    between atoms: C_13  and  O_14
REMARK   10  A    between atoms: C_13  and  C_15
REMARK   11  A    between atoms: C_15  and  C_16
REMARK   12  A    between atoms: C_15  and  C_97
REMARK   13  A    between atoms: C_22  and  C_96
REMARK   14  A    between atoms: C_25  and  O_95
REMARK   15  A    between atoms: C_31  and  O_90
REMARK   16  A    between atoms: C_32  and  C_89
REMARK   17  A    between atoms: C_33  and  O_88
REMARK   18  A    between atoms: C_35  and  O_87
REMARK   19  A    between atoms: C_36  and  C_86
REMARK   20  A    between atoms: C_37  and  C_69
REMARK   21  A    between atoms: C_43  and  C_68
REMARK   22  A    between atoms: C_46  and  O_67
REMARK   23  A    between atoms: C_52  and  O_62
REMARK   24  A    between atoms: C_53  and  C_61
REMARK   25  A    between atoms: C_54  and  O_60
REMARK   26  A    between atoms: C_56  and  O_59
REMARK   27  A    between atoms: C_57  and  C_58
REMARK   28  A    between atoms: O_62  and  C_63
REMARK   29  A    between atoms: C_69  and  C_70
REMARK   30  A    between atoms: C_69  and  C_85
REMARK   31  A    between atoms: C_70  and  O_71
REMARK   32  A    between atoms: C_70  and  C_72
REMARK   33  A    between atoms: C_72  and  C_73
REMARK   34  A    between atoms: C_72  and  C_84
REMARK   35  A    between atoms: C_73  and  C_74
REMARK   36  A    between atoms: C_74  and  C_75
REMARK   37  A    between atoms: C_77  and  C_83
REMARK   38  A    between atoms: C_79  and  O_81
REMARK   39  A    between atoms: O_81  and  C_82
REMARK   40  A    between atoms: O_90  and  C_91
REMARK                            x       y       z     vdW  Elec       q    Type
REMARK                         _______ _______ _______ _____ _____    ______ ____
ROOT
ATOM      1  C   UNL     1     145.660 170.906 189.115  0.00  0.00    +0.113 C 
ATOM      2  O   UNL     1     144.800 171.699 189.974  0.00  0.00    -0.458 OA
ATOM      3  C   UNL     1     143.530 171.229 190.094  0.00  0.00    +0.332 C 
ATOM      4  O   UNL     1     143.108 170.174 189.639  0.00  0.00    -0.246 OA
ATOM      5  C   UNL     1     142.627 172.128 190.818  0.00  0.00    +0.023 C 
ATOM      6  C   UNL     1     142.970 173.057 191.722  0.00  0.00    -0.052 C 
ATOM      7  C   UNL     1     141.962 173.802 192.470  0.00  0.00    -0.054 C 
ATOM      8  C   UNL     1     140.903 173.157 193.001  0.00  0.00    -0.079 C 
ATOM      9  C   UNL     1     139.724 173.735 193.726  0.00  0.00    -0.008 C 
ATOM     10  C   UNL     1     138.623 174.388 192.860  0.00  0.00    +0.061 C 
ATOM     11  C   UNL     1     138.536 173.984 191.383  0.00  0.00    +0.003 C 
ATOM     12  C   UNL     1     137.837 172.671 190.996  0.00  0.00    +0.080 C 
ATOM     13  O   UNL     1     137.973 172.623 189.560  0.00  0.00    -0.369 OA
ATOM     14  C   UNL     1     137.733 171.345 188.944  0.00  0.00    +0.065 C 
ATOM     15  C   UNL     1     136.243 170.979 189.059  0.00  0.00    +0.000 C 
ATOM     16  C   UNL     1     135.785 169.783 188.201  0.00  0.00    +0.066 C 
ATOM     17  C   UNL     1     134.235 169.646 188.262  0.00  0.00    +0.009 C 
ATOM     18  C   UNL     1     133.686 168.933 189.533  0.00  0.00    +0.063 C 
ATOM     19  C   UNL     1     132.367 169.548 190.060  0.00  0.00    -0.000 C 
ATOM     20  C   UNL     1     132.548 171.003 190.548  0.00  0.00    +0.064 C 
ATOM     21  C   UNL     1     131.841 171.290 191.901  0.00  0.00    +0.020 C 
ATOM     22  C   UNL     1     132.535 172.409 192.759  0.00  0.00    +0.113 C 
ATOM     23  O   UNL     1     133.487 173.163 191.987  0.00  0.00    -0.458 OA
ATOM     24  C   UNL     1     133.010 174.222 191.287  0.00  0.00    +0.332 C 
ATOM     25  O   UNL     1     131.913 174.743 191.407  0.00  0.00    -0.246 OA
ATOM     26  C   UNL     1     134.055 174.628 190.325  0.00  0.00    +0.023 C 
ATOM     27  C   UNL     1     133.821 175.626 189.460  0.00  0.00    -0.052 C 
ATOM     28  C   UNL     1     134.757 176.081 188.441  0.00  0.00    -0.054 C 
ATOM     29  C   UNL     1     135.452 175.207 187.684  0.00  0.00    -0.079 C 
ATOM     30  C   UNL     1     136.400 175.535 186.559  0.00  0.00    -0.008 C 
ATOM     31  C   UNL     1     137.856 175.668 187.046  0.00  0.00    +0.061 C 
ATOM     32  C   UNL     1     138.714 174.458 186.644  0.00  0.00    +0.003 C 
ATOM     33  C   UNL     1     140.076 174.418 187.360  0.00  0.00    +0.080 C 
ATOM     34  O   UNL     1     140.619 173.081 187.326  0.00  0.00    -0.369 OA
ATOM     35  C   UNL     1     141.358 172.759 186.132  0.00  0.00    +0.065 C 
ATOM     36  C   UNL     1     141.767 171.276 186.258  0.00  0.00    +0.000 C 
ATOM     37  C   UNL     1     142.636 170.736 185.101  0.00  0.00    +0.066 C 
ATOM     38  C   UNL     1     143.055 169.251 185.319  0.00  0.00    +0.009 C 
ATOM     39  C   UNL     1     143.939 168.969 186.566  0.00  0.00    +0.063 C 
ATOM     40  C   UNL     1     145.472 169.142 186.496  0.00  0.00    -0.000 C 
ATOM     41  C   UNL     1     146.070 170.555 186.552  0.00  0.00    +0.064 C 
ATOM     42  C   UNL     1     145.540 171.482 187.669  0.00  0.00    +0.020 C 
ATOM     43  C   UNL     1     142.580 173.686 186.039  0.00  0.00    -0.008 C 
ATOM     44  C   UNL     1     142.209 175.118 186.237  0.00  0.00    -0.083 C 
ATOM     45  C   UNL     1     141.062 175.440 186.846  0.00  0.00    -0.059 C 
ATOM     46  C   UNL     1     138.722 170.311 189.501  0.00  0.00    -0.008 C 
ATOM     47  C   UNL     1     138.777 170.343 190.994  0.00  0.00    -0.083 C 
ATOM     48  C   UNL     1     138.358 171.426 191.664  0.00  0.00    -0.059 C 
ATOM     49  H   UNL     1     145.257 169.888 189.078  0.00  0.00    +0.074 HD
ATOM     50  H   UNL     1     141.582 171.920 190.603  0.00  0.00    +0.069 HD
ATOM     51  H   UNL     1     144.013 173.278 191.935  0.00  0.00    +0.062 HD
ATOM     52  H   UNL     1     140.853 172.073 192.898  0.00  0.00    +0.058 HD
ATOM     53  H   UNL     1     140.068 174.464 194.471  0.00  0.00    +0.033 HD
ATOM     54  H   UNL     1     139.282 172.933 194.332  0.00  0.00    +0.033 HD
ATOM     55  H   UNL     1     138.816 175.469 192.875  0.00  0.00    +0.060 HD
ATOM     56  H   UNL     1     139.525 174.033 190.909  0.00  0.00    +0.032 HD
ATOM     57  H   UNL     1     137.970 174.778 190.870  0.00  0.00    +0.032 HD
ATOM     58  H   UNL     1     136.770 172.764 191.225  0.00  0.00    +0.064 HD
ATOM     59  H   UNL     1     137.969 171.486 187.884  0.00  0.00    +0.060 HD
ATOM     60  H   UNL     1     135.677 171.870 188.757  0.00  0.00    +0.032 HD
ATOM     61  H   UNL     1     135.984 170.814 190.105  0.00  0.00    +0.032 HD
ATOM     62  H   UNL     1     136.256 168.855 188.548  0.00  0.00    +0.060 HD
ATOM     63  H   UNL     1     133.829 170.663 188.213  0.00  0.00    +0.035 HD
ATOM     64  H   UNL     1     133.487 167.883 189.279  0.00  0.00    +0.060 HD
ATOM     65  H   UNL     1     132.039 168.919 190.896  0.00  0.00    +0.032 HD
ATOM     66  H   UNL     1     131.597 169.491 189.282  0.00  0.00    +0.032 HD
ATOM     67  H   UNL     1     133.614 171.194 190.657  0.00  0.00    +0.060 HD
ATOM     68  H   UNL     1     131.861 170.368 192.491  0.00  0.00    +0.036 HD
ATOM     69  H   UNL     1     131.772 173.113 193.121  0.00  0.00    +0.074 HD
ATOM     70  H   UNL     1     134.976 174.062 190.329  0.00  0.00    +0.069 HD
ATOM     71  H   UNL     1     132.869 176.157 189.501  0.00  0.00    +0.062 HD
ATOM     72  H   UNL     1     135.328 174.137 187.853  0.00  0.00    +0.058 HD
ATOM     73  H   UNL     1     136.314 174.742 185.803  0.00  0.00    +0.033 HD
ATOM     74  H   UNL     1     136.071 176.445 186.045  0.00  0.00    +0.033 HD
ATOM     75  H   UNL     1     137.887 175.792 188.135  0.00  0.00    +0.060 HD
ATOM     76  H   UNL     1     138.171 173.536 186.874  0.00  0.00    +0.032 HD
ATOM     77  H   UNL     1     138.871 174.458 185.557  0.00  0.00    +0.032 HD
ATOM     78  H   UNL     1     139.914 174.624 188.425  0.00  0.00    +0.064 HD
ATOM     79  H   UNL     1     140.702 172.886 185.262  0.00  0.00    +0.060 HD
ATOM     80  H   UNL     1     142.267 171.147 187.221  0.00  0.00    +0.032 HD
ATOM     81  H   UNL     1     140.844 170.684 186.327  0.00  0.00    +0.032 HD
ATOM     82  H   UNL     1     143.524 171.359 184.986  0.00  0.00    +0.060 HD
ATOM     83  H   UNL     1     142.114 168.699 185.468  0.00  0.00    +0.035 HD
ATOM     84  H   UNL     1     143.557 169.513 187.422  0.00  0.00    +0.060 HD
ATOM     85  H   UNL     1     145.845 168.634 185.597  0.00  0.00    +0.032 HD
ATOM     86  H   UNL     1     145.908 168.569 187.326  0.00  0.00    +0.032 HD
ATOM     87  H   UNL     1     147.156 170.446 186.667  0.00  0.00    +0.060 HD
ATOM     88  H   UNL     1     144.468 171.601 187.486  0.00  0.00    +0.036 HD
ATOM     89  H   UNL     1     143.076 173.577 185.070  0.00  0.00    +0.033 HD
ATOM     90  H   UNL     1     143.301 173.435 186.820  0.00  0.00    +0.033 HD
ATOM     91  H   UNL     1     142.894 175.891 185.900  0.00  0.00    +0.057 HD
ATOM     92  H   UNL     1     140.811 176.488 186.980  0.00  0.00    +0.059 HD
ATOM     93  H   UNL     1     139.730 170.537 189.130  0.00  0.00    +0.033 HD
ATOM     94  H   UNL     1     138.469 169.306 189.155  0.00  0.00    +0.033 HD
ATOM     95  H   UNL     1     139.142 169.468 191.522  0.00  0.00    +0.057 HD
ATOM     96  H   UNL     1     138.331 171.398 192.747  0.00  0.00    +0.059 HD
ENDROOT
BRANCH  28  97
ATOM     97  C   UNL     1     134.818 177.578 188.303  0.00  0.00    -0.040 C 
ATOM     98  H   UNL     1     135.575 178.039 188.942  0.00  0.00    +0.028 HD
ATOM     99  H   UNL     1     135.039 177.861 187.267  0.00  0.00    +0.028 HD
ATOM    100  H   UNL     1     133.857 178.023 188.586  0.00  0.00    +0.028 HD
ENDBRANCH  28  97
BRANCH  21 101
ATOM    101  C   UNL     1     130.349 171.611 191.730  0.00  0.00    -0.057 C 
ATOM    102  H   UNL     1     129.981 172.277 192.516  0.00  0.00    +0.023 HD
ATOM    103  H   UNL     1     129.752 170.694 191.767  0.00  0.00    +0.023 HD
ATOM    104  H   UNL     1     130.159 172.086 190.761  0.00  0.00    +0.023 HD
ENDBRANCH  21 101
BRANCH  42 105
ATOM    105  C   UNL     1     146.077 172.914 187.512  0.00  0.00    -0.057 C 
ATOM    106  H   UNL     1     145.591 173.414 186.667  0.00  0.00    +0.023 HD
ATOM    107  H   UNL     1     145.883 173.523 188.402  0.00  0.00    +0.023 HD
ATOM    108  H   UNL     1     147.146 172.929 187.292  0.00  0.00    +0.023 HD
ENDBRANCH  42 105
BRANCH  17 109
ATOM    109  C   UNL     1     133.649 168.949 187.021  0.00  0.00    -0.058 C 
ATOM    110  H   UNL     1     133.764 169.568 186.127  0.00  0.00    +0.023 HD
ATOM    111  H   UNL     1     132.585 168.727 187.151  0.00  0.00    +0.023 HD
ATOM    112  H   UNL     1     134.150 167.992 186.836  0.00  0.00    +0.023 HD
ENDBRANCH  17 109
BRANCH  38 113
ATOM    113  C   UNL     1     143.661 168.623 184.053  0.00  0.00    -0.058 C 
ATOM    114  H   UNL     1     144.746 168.755 184.020  0.00  0.00    +0.023 HD
ATOM    115  H   UNL     1     143.442 167.550 184.002  0.00  0.00    +0.023 HD
ATOM    116  H   UNL     1     143.236 169.072 183.149  0.00  0.00    +0.023 HD
ENDBRANCH  38 113
BRANCH   7 117
ATOM    117  C   UNL     1     142.193 175.282 192.565  0.00  0.00    -0.040 C 
ATOM    118  H   UNL     1     141.256 175.794 192.796  0.00  0.00    +0.028 HD
ATOM    119  H   UNL     1     142.578 175.708 191.635  0.00  0.00    +0.028 HD
ATOM    120  H   UNL     1     142.918 175.515 193.352  0.00  0.00    +0.028 HD
ENDBRANCH   7 117
BRANCH   1 121
ATOM    121  C   UNL     1     147.071 170.713 189.748  0.00  0.00    +0.020 C 
ATOM    122  H   UNL     1     147.782 170.699 188.913  0.00  0.00    +0.036 HD
BRANCH 121 123
ATOM    123  C   UNL     1     147.549 171.830 190.672  0.00  0.00    -0.057 C 
ATOM    124  H   UNL     1     147.391 171.587 191.725  0.00  0.00    +0.023 HD
ATOM    125  H   UNL     1     148.612 172.039 190.513  0.00  0.00    +0.023 HD
ATOM    126  H   UNL     1     147.048 172.772 190.448  0.00  0.00    +0.023 HD
ENDBRANCH 121 123
BRANCH 121 127
ATOM    127  C   UNL     1     147.174 169.313 190.441  0.00  0.00    +0.064 C 
ATOM    128  H   UNL     1     147.855 169.433 191.292  0.00  0.00    +0.060 HD
BRANCH 127 129
ATOM    129  C   UNL     1     147.655 168.111 189.560  0.00  0.00    -0.017 C 
ATOM    130  H   UNL     1     147.781 168.457 188.532  0.00  0.00    +0.032 HD
BRANCH 129 131
ATOM    131  C   UNL     1     149.047 167.670 190.044  0.00  0.00    -0.060 C 
ATOM    132  H   UNL     1     148.987 166.763 190.655  0.00  0.00    +0.023 HD
ATOM    133  H   UNL     1     149.518 168.453 190.649  0.00  0.00    +0.023 HD
ATOM    134  H   UNL     1     149.718 167.471 189.202  0.00  0.00    +0.023 HD
ENDBRANCH 129 131
BRANCH 129 135
ATOM    135  C   UNL     1     146.693 166.900 189.570  0.00  0.00    -0.046 C 
ATOM    136  H   UNL     1     146.515 166.547 188.551  0.00  0.00    +0.027 HD
ATOM    137  H   UNL     1     145.712 167.218 189.949  0.00  0.00    +0.027 HD
BRANCH 135 138
ATOM    138  C   UNL     1     147.134 165.691 190.414  0.00  0.00    -0.026 C 
ATOM    139  H   UNL     1     148.213 165.811 190.588  0.00  0.00    +0.029 HD
ATOM    140  H   UNL     1     147.020 164.766 189.836  0.00  0.00    +0.029 HD
BRANCH 138 143
ATOM    141  C   UNL     1     144.441 166.334 192.913  0.00  0.00    +0.059 C 
ATOM    142  O   UNL     1     145.119 166.094 191.674  0.00  0.00    -0.373 OA
ATOM    143  C   UNL     1     146.436 165.549 191.776  0.00  0.00    +0.061 C 
ATOM    144  C   UNL     1     147.243 166.262 192.863  0.00  0.00    -0.000 C 
ATOM    145  C   UNL     1     146.559 166.151 194.232  0.00  0.00    +0.063 C 
ATOM    146  C   UNL     1     145.115 165.670 194.107  0.00  0.00    -0.000 C 
ATOM    147  H   UNL     1     144.428 167.421 193.060  0.00  0.00    +0.059 HD
ATOM    148  H   UNL     1     146.354 164.483 192.018  0.00  0.00    +0.060 HD
ATOM    149  H   UNL     1     148.265 165.871 192.888  0.00  0.00    +0.032 HD
ATOM    150  H   UNL     1     147.303 167.328 192.608  0.00  0.00    +0.032 HD
ATOM    151  H   UNL     1     146.557 167.137 194.718  0.00  0.00    +0.060 HD
ATOM    152  H   UNL     1     144.573 165.884 195.036  0.00  0.00    +0.032 HD
ATOM    153  H   UNL     1     145.093 164.580 193.993  0.00  0.00    +0.032 HD
BRANCH 141 154
ATOM    154  C   UNL     1     143.004 165.856 192.757  0.00  0.00    -0.039 C 
ATOM    155  H   UNL     1     142.454 166.476 192.042  0.00  0.00    +0.025 HD
ATOM    156  H   UNL     1     142.978 164.818 192.410  0.00  0.00    +0.025 HD
ATOM    157  H   UNL     1     142.477 165.883 193.717  0.00  0.00    +0.025 HD
ENDBRANCH 141 154
BRANCH 145 158
ATOM    158  O   UNL     1     147.247 165.220 195.076  0.00  0.00    -0.380 OA
BRANCH 158 159
ATOM    159  C   UNL     1     147.987 165.845 196.117  0.00  0.00    +0.037 C 
ATOM    160  H   UNL     1     148.008 166.922 195.920  0.00  0.00    +0.052 HD
ATOM    161  H   UNL     1     147.521 165.681 197.092  0.00  0.00    +0.052 HD
ATOM    162  H   UNL     1     149.016 165.473 196.125  0.00  0.00    +0.052 HD
ENDBRANCH 158 159
ENDBRANCH 145 158
ENDBRANCH 138 143
ENDBRANCH 135 138
ENDBRANCH 129 135
ENDBRANCH 127 129
BRANCH 127 163
ATOM    163  O   UNL     1     145.895 169.022 191.020  0.00  0.00    -0.391 OA
ATOM    164  H   UNL     1     145.307 169.769 190.808  0.00  0.00    +0.210 HD
ENDBRANCH 127 163
ENDBRANCH 121 127
ENDBRANCH   1 121
BRANCH  41 165
ATOM    165  O   UNL     1     145.862 171.168 185.276  0.00  0.00    -0.391 OA
ATOM    166  H   UNL     1     145.036 170.808 184.912  0.00  0.00    +0.210 HD
ENDBRANCH  41 165
BRANCH  39 167
ATOM    167  O   UNL     1     143.746 167.574 186.903  0.00  0.00    -0.391 OA
ATOM    168  H   UNL     1     144.620 167.150 186.837  0.00  0.00    +0.210 HD
ENDBRANCH  39 167
BRANCH  31 169
ATOM    169  O   UNL     1     138.412 176.859 186.480  0.00  0.00    -0.391 OA
ATOM    170  H   UNL     1     139.342 176.666 186.259  0.00  0.00    +0.210 HD
ENDBRANCH  31 169
BRANCH  22 171
ATOM    171  C   UNL     1     133.242 171.846 194.052  0.00  0.00    +0.020 C 
ATOM    172  H   UNL     1     132.466 171.312 194.615  0.00  0.00    +0.036 HD
BRANCH 171 173
ATOM    173  C   UNL     1     134.302 170.826 193.586  0.00  0.00    -0.057 C 
ATOM    174  H   UNL     1     134.404 169.997 194.293  0.00  0.00    +0.023 HD
ATOM    175  H   UNL     1     134.052 170.399 192.609  0.00  0.00    +0.023 HD
ATOM    176  H   UNL     1     135.298 171.262 193.519  0.00  0.00    +0.023 HD
ENDBRANCH 171 173
BRANCH 171 177
ATOM    177  C   UNL     1     133.838 172.937 195.003  0.00  0.00    +0.064 C 
ATOM    178  H   UNL     1     134.916 173.013 194.813  0.00  0.00    +0.060 HD
BRANCH 177 179
ATOM    179  O   UNL     1     133.254 174.194 194.662  0.00  0.00    -0.391 OA
ATOM    180  H   UNL     1     132.283 174.083 194.588  0.00  0.00    +0.210 HD
ENDBRANCH 177 179
BRANCH 177 181
ATOM    181  C   UNL     1     133.623 172.773 196.542  0.00  0.00    -0.017 C 
ATOM    182  H   UNL     1     133.431 173.768 196.966  0.00  0.00    +0.032 HD
BRANCH 181 183
ATOM    183  C   UNL     1     132.444 171.879 196.924  0.00  0.00    -0.060 C 
ATOM    184  H   UNL     1     132.768 171.091 197.608  0.00  0.00    +0.023 HD
ATOM    185  H   UNL     1     132.035 171.339 196.065  0.00  0.00    +0.023 HD
ATOM    186  H   UNL     1     131.634 172.456 197.378  0.00  0.00    +0.023 HD
ENDBRANCH 181 183
BRANCH 181 187
ATOM    187  C   UNL     1     134.950 172.269 197.190  0.00  0.00    -0.046 C 
ATOM    188  H   UNL     1     135.395 171.506 196.539  0.00  0.00    +0.027 HD
ATOM    189  H   UNL     1     134.721 171.774 198.142  0.00  0.00    +0.027 HD
BRANCH 187 190
ATOM    190  C   UNL     1     136.002 173.360 197.437  0.00  0.00    -0.026 C 
ATOM    191  H   UNL     1     136.996 172.985 197.168  0.00  0.00    +0.029 HD
ATOM    192  H   UNL     1     135.774 174.213 196.785  0.00  0.00    +0.029 HD
BRANCH 190 193
ATOM    193  C   UNL     1     136.021 173.857 198.891  0.00  0.00    +0.061 C 
ATOM    194  O   UNL     1     135.188 172.998 199.676  0.00  0.00    -0.373 OA
ATOM    195  C   UNL     1     135.133 173.339 201.065  0.00  0.00    +0.059 C 
ATOM    196  C   UNL     1     134.654 174.781 201.262  0.00  0.00    -0.000 C 
ATOM    197  C   UNL     1     135.415 175.791 200.401  0.00  0.00    +0.063 C 
ATOM    198  C   UNL     1     135.500 175.295 198.958  0.00  0.00    -0.000 C 
ATOM    199  H   UNL     1     137.054 173.804 199.255  0.00  0.00    +0.060 HD
ATOM    200  H   UNL     1     134.366 172.683 201.497  0.00  0.00    +0.059 HD
ATOM    201  H   UNL     1     134.691 175.044 202.322  0.00  0.00    +0.032 HD
ATOM    202  H   UNL     1     133.599 174.825 200.956  0.00  0.00    +0.032 HD
ATOM    203  H   UNL     1     134.884 176.753 200.402  0.00  0.00    +0.060 HD
ATOM    204  H   UNL     1     136.151 175.953 198.371  0.00  0.00    +0.032 HD
ATOM    205  H   UNL     1     134.494 175.338 198.522  0.00  0.00    +0.032 HD
BRANCH 195 206
ATOM    206  C   UNL     1     136.436 173.005 201.787  0.00  0.00    -0.039 C 
ATOM    207  H   UNL     1     136.285 172.152 202.460  0.00  0.00    +0.025 HD
ATOM    208  H   UNL     1     136.782 173.857 202.379  0.00  0.00    +0.025 HD
ATOM    209  H   UNL     1     137.241 172.718 201.106  0.00  0.00    +0.025 HD
ENDBRANCH 195 206
BRANCH 197 210
ATOM    210  O   UNL     1     136.748 176.001 200.876  0.00  0.00    -0.380 OA
BRANCH 210 211
ATOM    211  C   UNL     1     136.810 176.754 202.080  0.00  0.00    +0.037 C 
ATOM    212  H   UNL     1     137.828 177.134 202.192  0.00  0.00    +0.052 HD
ATOM    213  H   UNL     1     136.125 177.606 202.031  0.00  0.00    +0.052 HD
ATOM    214  H   UNL     1     136.575 176.134 202.949  0.00  0.00    +0.052 HD
ENDBRANCH 210 211
ENDBRANCH 197 210
ENDBRANCH 190 193
ENDBRANCH 187 190
ENDBRANCH 181 187
ENDBRANCH 177 181
ENDBRANCH 171 177
ENDBRANCH  22 171
BRANCH  20 215
ATOM    215  O   UNL     1     132.105 171.897 189.525  0.00  0.00    -0.391 OA
ATOM    216  H   UNL     1     131.339 172.400 189.848  0.00  0.00    +0.210 HD
ENDBRANCH  20 215
BRANCH  18 217
ATOM    217  O   UNL     1     134.622 168.891 190.613  0.00  0.00    -0.391 OA
ATOM    218  H   UNL     1     134.108 168.990 191.437  0.00  0.00    +0.210 HD
ENDBRANCH  18 217
BRANCH  10 219
ATOM    219  O   UNL     1     137.366 174.200 193.513  0.00  0.00    -0.391 OA
ATOM    220  H   UNL     1     136.900 173.467 193.074  0.00  0.00    +0.210 HD
ENDBRANCH  10 219
BRANCH  37 221
ATOM    221  O   UNL     1     141.814 170.813 183.922  0.00  0.00    -0.379 OA
BRANCH 221 222
ATOM    222  C   UNL     1     142.357 171.645 182.905  0.00  0.00    +0.037 C 
ATOM    223  H   UNL     1     143.059 171.047 182.316  0.00  0.00    +0.052 HD
ATOM    224  H   UNL     1     141.563 171.994 182.241  0.00  0.00    +0.052 HD
ATOM    225  H   UNL     1     142.896 172.498 183.329  0.00  0.00    +0.052 HD
ENDBRANCH 221 222
ENDBRANCH  37 221
BRANCH  16 226
ATOM    226  O   UNL     1     136.171 170.071 186.846  0.00  0.00    -0.379 OA
BRANCH 226 227
ATOM    227  C   UNL     1     137.074 169.115 186.302  0.00  0.00    +0.037 C 
ATOM    228  H   UNL     1     136.689 168.115 186.519  0.00  0.00    +0.052 HD
ATOM    229  H   UNL     1     137.148 169.230 185.216  0.00  0.00    +0.052 HD
ATOM    230  H   UNL     1     138.064 169.213 186.758  0.00  0.00    +0.052 HD
ENDBRANCH 226 227
ENDBRANCH  16 226
TORSDOF 40
ENDMDL
MODEL 10
REMARK VINA RESULT:      -5.0      7.408     13.243
REMARK  Name = Swinholide A_conf3
REMARK  40 active torsions:
REMARK  status: ('A' for Active; 'I' for Inactive)
REMARK    1  A    between atoms: C_1  and  C_2
REMARK    2  A    between atoms: C_4  and  C_10
REMARK    3  A    between atoms: C_6  and  O_8
REMARK    4  A    between atoms: O_8  and  C_9
REMARK    5  A    between atoms: C_10  and  C_11
REMARK    6  A    between atoms: C_11  and  C_12
REMARK    7  A    between atoms: C_12  and  C_13
REMARK    8  A    between atoms: C_12  and  C_98
REMARK    9  A    between atoms: C_13  and  O_14
REMARK   10  A    between atoms: C_13  and  C_15
REMARK   11  A    between atoms: C_15  and  C_16
REMARK   12  A    between atoms: C_15  and  C_97
REMARK   13  A    between atoms: C_22  and  C_96
REMARK   14  A    between atoms: C_25  and  O_95
REMARK   15  A    between atoms: C_31  and  O_90
REMARK   16  A    between atoms: C_32  and  C_89
REMARK   17  A    between atoms: C_33  and  O_88
REMARK   18  A    between atoms: C_35  and  O_87
REMARK   19  A    between atoms: C_36  and  C_86
REMARK   20  A    between atoms: C_37  and  C_69
REMARK   21  A    between atoms: C_43  and  C_68
REMARK   22  A    between atoms: C_46  and  O_67
REMARK   23  A    between atoms: C_52  and  O_62
REMARK   24  A    between atoms: C_53  and  C_61
REMARK   25  A    between atoms: C_54  and  O_60
REMARK   26  A    between atoms: C_56  and  O_59
REMARK   27  A    between atoms: C_57  and  C_58
REMARK   28  A    between atoms: O_62  and  C_63
REMARK   29  A    between atoms: C_69  and  C_70
REMARK   30  A    between atoms: C_69  and  C_85
REMARK   31  A    between atoms: C_70  and  O_71
REMARK   32  A    between atoms: C_70  and  C_72
REMARK   33  A    between atoms: C_72  and  C_73
REMARK   34  A    between atoms: C_72  and  C_84
REMARK   35  A    between atoms: C_73  and  C_74
REMARK   36  A    between atoms: C_74  and  C_75
REMARK   37  A    between atoms: C_77  and  C_83
REMARK   38  A    between atoms: C_79  and  O_81
REMARK   39  A    between atoms: O_81  and  C_82
REMARK   40  A    between atoms: O_90  and  C_91
REMARK                            x       y       z     vdW  Elec       q    Type
REMARK                         _______ _______ _______ _____ _____    ______ ____
ROOT
ATOM      1  C   UNL     1     144.843 170.930 190.096  0.00  0.00    +0.113 C 
ATOM      2  O   UNL     1     144.354 172.161 190.691  0.00  0.00    -0.458 OA
ATOM      3  C   UNL     1     143.074 172.101 191.146  0.00  0.00    +0.332 C 
ATOM      4  O   UNL     1     142.373 171.099 191.189  0.00  0.00    -0.246 OA
ATOM      5  C   UNL     1     142.536 173.392 191.584  0.00  0.00    +0.023 C 
ATOM      6  C   UNL     1     143.236 174.453 192.011  0.00  0.00    -0.052 C 
ATOM      7  C   UNL     1     142.572 175.640 192.541  0.00  0.00    -0.054 C 
ATOM      8  C   UNL     1     141.551 175.509 193.413  0.00  0.00    -0.079 C 
ATOM      9  C   UNL     1     140.686 176.579 194.009  0.00  0.00    -0.008 C 
ATOM     10  C   UNL     1     139.568 177.156 193.111  0.00  0.00    +0.061 C 
ATOM     11  C   UNL     1     139.090 176.308 191.926  0.00  0.00    +0.003 C 
ATOM     12  C   UNL     1     138.088 175.166 192.165  0.00  0.00    +0.080 C 
ATOM     13  O   UNL     1     137.899 174.598 190.852  0.00  0.00    -0.369 OA
ATOM     14  C   UNL     1     137.295 173.293 190.809  0.00  0.00    +0.065 C 
ATOM     15  C   UNL     1     135.823 173.382 191.249  0.00  0.00    +0.000 C 
ATOM     16  C   UNL     1     134.973 172.124 190.981  0.00  0.00    +0.066 C 
ATOM     17  C   UNL     1     133.476 172.416 191.293  0.00  0.00    +0.009 C 
ATOM     18  C   UNL     1     133.089 172.345 192.799  0.00  0.00    +0.063 C 
ATOM     19  C   UNL     1     132.056 173.418 193.219  0.00  0.00    -0.000 C 
ATOM     20  C   UNL     1     132.609 174.856 193.085  0.00  0.00    +0.064 C 
ATOM     21  C   UNL     1     132.279 175.758 194.305  0.00  0.00    +0.020 C 
ATOM     22  C   UNL     1     133.340 176.886 194.572  0.00  0.00    +0.113 C 
ATOM     23  O   UNL     1     134.228 177.061 193.453  0.00  0.00    -0.458 OA
ATOM     24  C   UNL     1     133.820 177.901 192.471  0.00  0.00    +0.332 C 
ATOM     25  O   UNL     1     132.893 178.693 192.524  0.00  0.00    -0.246 OA
ATOM     26  C   UNL     1     134.690 177.674 191.299  0.00  0.00    +0.023 C 
ATOM     27  C   UNL     1     134.467 178.340 190.156  0.00  0.00    -0.052 C 
ATOM     28  C   UNL     1     135.230 178.165 188.928  0.00  0.00    -0.054 C 
ATOM     29  C   UNL     1     135.567 176.939 188.478  0.00  0.00    -0.079 C 
ATOM     30  C   UNL     1     136.294 176.609 187.200  0.00  0.00    -0.008 C 
ATOM     31  C   UNL     1     137.819 176.524 187.404  0.00  0.00    +0.061 C 
ATOM     32  C   UNL     1     138.326 175.073 187.387  0.00  0.00    +0.003 C 
ATOM     33  C   UNL     1     139.778 174.934 187.879  0.00  0.00    +0.080 C 
ATOM     34  O   UNL     1     140.038 173.575 188.288  0.00  0.00    -0.369 OA
ATOM     35  C   UNL     1     140.428 172.686 187.222  0.00  0.00    +0.065 C 
ATOM     36  C   UNL     1     140.567 171.283 187.850  0.00  0.00    +0.000 C 
ATOM     37  C   UNL     1     141.047 170.178 186.885  0.00  0.00    +0.066 C 
ATOM     38  C   UNL     1     141.215 168.802 187.597  0.00  0.00    +0.009 C 
ATOM     39  C   UNL     1     142.278 168.747 188.730  0.00  0.00    +0.063 C 
ATOM     40  C   UNL     1     143.763 168.488 188.399  0.00  0.00    -0.000 C 
ATOM     41  C   UNL     1     144.616 169.633 187.832  0.00  0.00    +0.064 C 
ATOM     42  C   UNL     1     144.525 170.988 188.569  0.00  0.00    +0.020 C 
ATOM     43  C   UNL     1     141.753 173.181 186.623  0.00  0.00    -0.008 C 
ATOM     44  C   UNL     1     141.711 174.639 186.304  0.00  0.00    -0.083 C 
ATOM     45  C   UNL     1     140.805 175.431 186.888  0.00  0.00    -0.059 C 
ATOM     46  C   UNL     1     138.167 172.296 191.584  0.00  0.00    -0.008 C 
ATOM     47  C   UNL     1     138.549 172.820 192.931  0.00  0.00    -0.083 C 
ATOM     48  C   UNL     1     138.496 174.136 193.184  0.00  0.00    -0.059 C 
ATOM     49  H   UNL     1     144.256 170.100 190.504  0.00  0.00    +0.074 HD
ATOM     50  H   UNL     1     141.449 173.397 191.603  0.00  0.00    +0.069 HD
ATOM     51  H   UNL     1     144.322 174.460 191.984  0.00  0.00    +0.062 HD
ATOM     52  H   UNL     1     141.275 174.506 193.739  0.00  0.00    +0.058 HD
ATOM     53  H   UNL     1     141.314 177.406 194.366  0.00  0.00    +0.033 HD
ATOM     54  H   UNL     1     140.243 176.174 194.927  0.00  0.00    +0.033 HD
ATOM     55  H   UNL     1     139.960 178.089 192.686  0.00  0.00    +0.060 HD
ATOM     56  H   UNL     1     139.944 175.938 191.344  0.00  0.00    +0.032 HD
ATOM     57  H   UNL     1     138.586 176.996 191.228  0.00  0.00    +0.032 HD
ATOM     58  H   UNL     1     137.133 175.601 192.479  0.00  0.00    +0.064 HD
ATOM     59  H   UNL     1     137.319 172.999 189.755  0.00  0.00    +0.060 HD
ATOM     60  H   UNL     1     135.384 174.229 190.706  0.00  0.00    +0.032 HD
ATOM     61  H   UNL     1     135.770 173.656 192.302  0.00  0.00    +0.032 HD
ATOM     62  H   UNL     1     135.324 171.283 191.591  0.00  0.00    +0.060 HD
ATOM     63  H   UNL     1     133.269 173.423 190.912  0.00  0.00    +0.035 HD
ATOM     64  H   UNL     1     132.646 171.361 192.994  0.00  0.00    +0.060 HD
ATOM     65  H   UNL     1     131.804 173.219 194.267  0.00  0.00    +0.032 HD
ATOM     66  H   UNL     1     131.140 173.298 192.629  0.00  0.00    +0.032 HD
ATOM     67  H   UNL     1     133.690 174.793 192.972  0.00  0.00    +0.060 HD
ATOM     68  H   UNL     1     132.252 175.120 195.195  0.00  0.00    +0.036 HD
ATOM     69  H   UNL     1     132.821 177.841 194.734  0.00  0.00    +0.074 HD
ATOM     70  H   UNL     1     135.466 176.927 191.398  0.00  0.00    +0.069 HD
ATOM     71  H   UNL     1     133.664 179.078 190.115  0.00  0.00    +0.062 HD
ATOM     72  H   UNL     1     135.283 176.061 189.058  0.00  0.00    +0.058 HD
ATOM     73  H   UNL     1     135.899 175.656 186.823  0.00  0.00    +0.033 HD
ATOM     74  H   UNL     1     136.040 177.340 186.424  0.00  0.00    +0.033 HD
ATOM     75  H   UNL     1     138.108 177.000 188.349  0.00  0.00    +0.060 HD
ATOM     76  H   UNL     1     137.682 174.456 188.020  0.00  0.00    +0.032 HD
ATOM     77  H   UNL     1     138.242 174.662 186.372  0.00  0.00    +0.032 HD
ATOM     78  H   UNL     1     139.892 175.525 188.795  0.00  0.00    +0.064 HD
ATOM     79  H   UNL     1     139.635 172.672 186.463  0.00  0.00    +0.060 HD
ATOM     80  H   UNL     1     141.229 171.368 188.715  0.00  0.00    +0.032 HD
ATOM     81  H   UNL     1     139.585 171.007 188.261  0.00  0.00    +0.032 HD
ATOM     82  H   UNL     1     141.990 170.475 186.425  0.00  0.00    +0.060 HD
ATOM     83  H   UNL     1     140.242 168.594 188.068  0.00  0.00    +0.035 HD
ATOM     84  H   UNL     1     142.199 169.630 189.355  0.00  0.00    +0.060 HD
ATOM     85  H   UNL     1     143.831 167.626 187.722  0.00  0.00    +0.032 HD
ATOM     86  H   UNL     1     144.252 168.142 189.320  0.00  0.00    +0.032 HD
ATOM     87  H   UNL     1     145.660 169.296 187.836  0.00  0.00    +0.060 HD
ATOM     88  H   UNL     1     143.480 171.307 188.496  0.00  0.00    +0.036 HD
ATOM     89  H   UNL     1     141.999 172.625 185.713  0.00  0.00    +0.033 HD
ATOM     90  H   UNL     1     142.565 173.036 187.338  0.00  0.00    +0.033 HD
ATOM     91  H   UNL     1     142.440 175.048 185.611  0.00  0.00    +0.057 HD
ATOM     92  H   UNL     1     140.791 176.489 186.643  0.00  0.00    +0.059 HD
ATOM     93  H   UNL     1     139.095 172.116 191.027  0.00  0.00    +0.033 HD
ATOM     94  H   UNL     1     137.660 171.333 191.685  0.00  0.00    +0.033 HD
ATOM     95  H   UNL     1     138.847 172.116 193.701  0.00  0.00    +0.057 HD
ATOM     96  H   UNL     1     138.699 174.488 194.189  0.00  0.00    +0.059 HD
ENDROOT
BRANCH  28  97
ATOM     97  C   UNL     1     135.542 179.457 188.221  0.00  0.00    -0.040 C 
ATOM     98  H   UNL     1     134.904 179.637 187.352  0.00  0.00    +0.028 HD
ATOM     99  H   UNL     1     135.425 180.306 188.903  0.00  0.00    +0.028 HD
ATOM    100  H   UNL     1     136.574 179.447 187.854  0.00  0.00    +0.028 HD
ENDBRANCH  28  97
BRANCH  21 101
ATOM    101  C   UNL     1     130.874 176.371 194.221  0.00  0.00    -0.057 C 
ATOM    102  H   UNL     1     130.830 177.361 194.685  0.00  0.00    +0.023 HD
ATOM    103  H   UNL     1     130.145 175.734 194.734  0.00  0.00    +0.023 HD
ATOM    104  H   UNL     1     130.548 176.465 193.179  0.00  0.00    +0.023 HD
ENDBRANCH  21 101
BRANCH  42 105
ATOM    105  C   UNL     1     145.275 172.093 187.807  0.00  0.00    -0.057 C 
ATOM    106  H   UNL     1     145.248 173.033 188.371  0.00  0.00    +0.023 HD
ATOM    107  H   UNL     1     146.330 171.840 187.655  0.00  0.00    +0.023 HD
ATOM    108  H   UNL     1     144.814 172.312 186.843  0.00  0.00    +0.023 HD
ENDBRANCH  42 105
BRANCH  17 109
ATOM    109  C   UNL     1     132.515 171.512 190.500  0.00  0.00    -0.058 C 
ATOM    110  H   UNL     1     132.221 171.976 189.554  0.00  0.00    +0.023 HD
ATOM    111  H   UNL     1     131.607 171.293 191.072  0.00  0.00    +0.023 HD
ATOM    112  H   UNL     1     132.983 170.548 190.271  0.00  0.00    +0.023 HD
ENDBRANCH  17 109
BRANCH  38 113
ATOM    113  C   UNL     1     141.403 167.647 186.600  0.00  0.00    -0.058 C 
ATOM    114  H   UNL     1     140.466 167.397 186.094  0.00  0.00    +0.023 HD
ATOM    115  H   UNL     1     142.149 167.902 185.838  0.00  0.00    +0.023 HD
ATOM    116  H   UNL     1     141.766 166.746 187.105  0.00  0.00    +0.023 HD
ENDBRANCH  38 113
BRANCH   7 117
ATOM    117  C   UNL     1     143.093 176.952 192.033  0.00  0.00    -0.040 C 
ATOM    118  H   UNL     1     144.177 176.901 191.903  0.00  0.00    +0.028 HD
ATOM    119  H   UNL     1     142.884 177.780 192.715  0.00  0.00    +0.028 HD
ATOM    120  H   UNL     1     142.640 177.206 191.068  0.00  0.00    +0.028 HD
ENDBRANCH   7 117
BRANCH   1 121
ATOM    121  C   UNL     1     146.295 170.612 190.564  0.00  0.00    +0.020 C 
ATOM    122  H   UNL     1     146.196 170.021 191.484  0.00  0.00    +0.036 HD
BRANCH 121 123
ATOM    123  C   UNL     1     147.132 169.756 189.618  0.00  0.00    -0.057 C 
ATOM    124  H   UNL     1     146.928 169.984 188.570  0.00  0.00    +0.023 HD
ATOM    125  H   UNL     1     148.201 169.895 189.809  0.00  0.00    +0.023 HD
ATOM    126  H   UNL     1     146.959 168.692 189.788  0.00  0.00    +0.023 HD
ENDBRANCH 121 123
BRANCH 121 127
ATOM    127  C   UNL     1     147.043 171.928 190.961  0.00  0.00    +0.064 C 
ATOM    128  H   UNL     1     146.705 172.704 190.262  0.00  0.00    +0.060 HD
BRANCH 127 129
ATOM    129  C   UNL     1     148.608 171.888 190.970  0.00  0.00    -0.017 C 
ATOM    130  H   UNL     1     148.953 171.413 190.049  0.00  0.00    +0.032 HD
BRANCH 129 131
ATOM    131  C   UNL     1     149.140 173.331 190.941  0.00  0.00    -0.060 C 
ATOM    132  H   UNL     1     149.052 173.768 189.940  0.00  0.00    +0.023 HD
ATOM    133  H   UNL     1     150.197 173.364 191.230  0.00  0.00    +0.023 HD
ATOM    134  H   UNL     1     148.597 173.971 191.643  0.00  0.00    +0.023 HD
ENDBRANCH 129 131
BRANCH 129 135
ATOM    135  C   UNL     1     149.210 171.136 192.181  0.00  0.00    -0.046 C 
ATOM    136  H   UNL     1     148.503 170.392 192.556  0.00  0.00    +0.027 HD
ATOM    137  H   UNL     1     149.363 171.843 193.008  0.00  0.00    +0.027 HD
BRANCH 135 138
ATOM    138  C   UNL     1     150.553 170.425 191.937  0.00  0.00    -0.026 C 
ATOM    139  H   UNL     1     151.330 171.076 192.362  0.00  0.00    +0.029 HD
ATOM    140  H   UNL     1     150.759 170.367 190.862  0.00  0.00    +0.029 HD
BRANCH 138 143
ATOM    141  C   UNL     1     152.145 167.096 192.480  0.00  0.00    +0.059 C 
ATOM    142  O   UNL     1     151.968 168.498 192.244  0.00  0.00    -0.373 OA
ATOM    143  C   UNL     1     150.684 169.032 192.572  0.00  0.00    +0.061 C 
ATOM    144  C   UNL     1     149.564 168.114 192.074  0.00  0.00    -0.000 C 
ATOM    145  C   UNL     1     149.680 166.709 192.679  0.00  0.00    +0.063 C 
ATOM    146  C   UNL     1     151.042 166.486 193.335  0.00  0.00    -0.000 C 
ATOM    147  H   UNL     1     152.155 166.610 191.497  0.00  0.00    +0.059 HD
ATOM    148  H   UNL     1     150.617 169.135 193.661  0.00  0.00    +0.060 HD
ATOM    149  H   UNL     1     148.589 168.566 192.283  0.00  0.00    +0.032 HD
ATOM    150  H   UNL     1     149.656 168.015 190.984  0.00  0.00    +0.032 HD
ATOM    151  H   UNL     1     149.548 165.960 191.886  0.00  0.00    +0.060 HD
ATOM    152  H   UNL     1     151.206 165.411 193.485  0.00  0.00    +0.032 HD
ATOM    153  H   UNL     1     151.051 166.931 194.336  0.00  0.00    +0.032 HD
BRANCH 141 154
ATOM    154  C   UNL     1     153.511 166.901 193.123  0.00  0.00    -0.039 C 
ATOM    155  H   UNL     1     153.599 167.477 194.050  0.00  0.00    +0.025 HD
ATOM    156  H   UNL     1     153.682 165.844 193.352  0.00  0.00    +0.025 HD
ATOM    157  H   UNL     1     154.311 167.211 192.443  0.00  0.00    +0.025 HD
ENDBRANCH 141 154
BRANCH 145 158
ATOM    158  O   UNL     1     148.682 166.499 193.685  0.00  0.00    -0.380 OA
BRANCH 158 159
ATOM    159  C   UNL     1     147.845 165.380 193.421  0.00  0.00    +0.037 C 
ATOM    160  H   UNL     1     147.340 165.107 194.353  0.00  0.00    +0.052 HD
ATOM    161  H   UNL     1     147.085 165.617 192.672  0.00  0.00    +0.052 HD
ATOM    162  H   UNL     1     148.447 164.528 193.089  0.00  0.00    +0.052 HD
ENDBRANCH 158 159
ENDBRANCH 145 158
ENDBRANCH 138 143
ENDBRANCH 135 138
ENDBRANCH 129 135
ENDBRANCH 127 129
BRANCH 127 163
ATOM    163  O   UNL     1     146.549 172.336 192.244  0.00  0.00    -0.391 OA
ATOM    164  H   UNL     1     145.717 172.816 192.092  0.00  0.00    +0.210 HD
ENDBRANCH 127 163
ENDBRANCH 121 127
ENDBRANCH   1 121
BRANCH  41 165
ATOM    165  O   UNL     1     144.257 169.805 186.458  0.00  0.00    -0.391 OA
ATOM    166  H   UNL     1     143.477 170.385 186.432  0.00  0.00    +0.210 HD
ENDBRANCH  41 165
BRANCH  39 167
ATOM    167  O   UNL     1     141.902 167.650 189.596  0.00  0.00    -0.391 OA
ATOM    168  H   UNL     1     140.997 167.834 189.901  0.00  0.00    +0.210 HD
ENDBRANCH  39 167
BRANCH  31 169
ATOM    169  O   UNL     1     138.455 177.266 186.359  0.00  0.00    -0.391 OA
ATOM    170  H   UNL     1     137.762 177.788 185.913  0.00  0.00    +0.210 HD
ENDBRANCH  31 169
BRANCH  22 171
ATOM    171  C   UNL     1     134.191 176.638 195.877  0.00  0.00    +0.020 C 
ATOM    172  H   UNL     1     134.704 177.584 196.090  0.00  0.00    +0.036 HD
BRANCH 171 173
ATOM    173  C   UNL     1     133.198 176.348 197.022  0.00  0.00    -0.057 C 
ATOM    174  H   UNL     1     132.283 175.872 196.654  0.00  0.00    +0.023 HD
ATOM    175  H   UNL     1     133.634 175.688 197.779  0.00  0.00    +0.023 HD
ATOM    176  H   UNL     1     132.860 177.257 197.520  0.00  0.00    +0.023 HD
ENDBRANCH 171 173
BRANCH 171 177
ATOM    177  C   UNL     1     135.292 175.533 195.744  0.00  0.00    +0.064 C 
ATOM    178  H   UNL     1     134.939 174.776 195.032  0.00  0.00    +0.060 HD
BRANCH 177 179
ATOM    179  O   UNL     1     136.461 176.133 195.187  0.00  0.00    -0.391 OA
ATOM    180  H   UNL     1     137.249 175.785 195.654  0.00  0.00    +0.210 HD
ENDBRANCH 177 179
BRANCH 177 181
ATOM    181  C   UNL     1     135.765 174.802 197.042  0.00  0.00    -0.017 C 
ATOM    182  H   UNL     1     134.931 174.806 197.756  0.00  0.00    +0.032 HD
BRANCH 181 183
ATOM    183  C   UNL     1     136.181 173.347 196.832  0.00  0.00    -0.060 C 
ATOM    184  H   UNL     1     137.270 173.260 196.812  0.00  0.00    +0.023 HD
ATOM    185  H   UNL     1     135.861 172.958 195.860  0.00  0.00    +0.023 HD
ATOM    186  H   UNL     1     135.770 172.696 197.608  0.00  0.00    +0.023 HD
ENDBRANCH 181 183
BRANCH 181 187
ATOM    187  C   UNL     1     136.910 175.630 197.702  0.00  0.00    -0.046 C 
ATOM    188  H   UNL     1     137.412 176.223 196.927  0.00  0.00    +0.027 HD
ATOM    189  H   UNL     1     137.665 174.942 198.106  0.00  0.00    +0.027 HD
BRANCH 187 190
ATOM    190  C   UNL     1     136.458 176.582 198.818  0.00  0.00    -0.026 C 
ATOM    191  H   UNL     1     137.019 177.522 198.755  0.00  0.00    +0.029 HD
ATOM    192  H   UNL     1     135.395 176.812 198.665  0.00  0.00    +0.029 HD
BRANCH 190 193
ATOM    193  C   UNL     1     136.624 175.984 200.223  0.00  0.00    +0.061 C 
ATOM    194  O   UNL     1     135.429 175.271 200.558  0.00  0.00    -0.373 OA
ATOM    195  C   UNL     1     135.458 174.642 201.843  0.00  0.00    +0.059 C 
ATOM    196  C   UNL     1     135.733 175.662 202.952  0.00  0.00    -0.000 C 
ATOM    197  C   UNL     1     136.944 176.552 202.666  0.00  0.00    +0.063 C 
ATOM    198  C   UNL     1     136.869 177.100 201.241  0.00  0.00    -0.000 C 
ATOM    199  H   UNL     1     137.473 175.291 200.200  0.00  0.00    +0.060 HD
ATOM    200  H   UNL     1     134.442 174.257 202.003  0.00  0.00    +0.059 HD
ATOM    201  H   UNL     1     135.826 175.150 203.913  0.00  0.00    +0.032 HD
ATOM    202  H   UNL     1     134.857 176.321 203.021  0.00  0.00    +0.032 HD
ATOM    203  H   UNL     1     136.952 177.402 203.360  0.00  0.00    +0.060 HD
ATOM    204  H   UNL     1     137.795 177.632 200.992  0.00  0.00    +0.032 HD
ATOM    205  H   UNL     1     136.043 177.822 201.196  0.00  0.00    +0.032 HD
BRANCH 195 206
ATOM    206  C   UNL     1     136.382 173.427 201.863  0.00  0.00    -0.039 C 
ATOM    207  H   UNL     1     137.307 173.666 202.400  0.00  0.00    +0.025 HD
ATOM    208  H   UNL     1     136.640 173.117 200.846  0.00  0.00    +0.025 HD
ATOM    209  H   UNL     1     135.945 172.566 202.376  0.00  0.00    +0.025 HD
ENDBRANCH 195 206
BRANCH 197 210
ATOM    210  O   UNL     1     138.176 175.836 202.799  0.00  0.00    -0.380 OA
BRANCH 210 211
ATOM    211  C   UNL     1     138.516 175.539 204.147  0.00  0.00    +0.037 C 
ATOM    212  H   UNL     1     139.543 175.868 204.320  0.00  0.00    +0.052 HD
ATOM    213  H   UNL     1     137.859 176.080 204.834  0.00  0.00    +0.052 HD
ATOM    214  H   UNL     1     138.461 174.465 204.342  0.00  0.00    +0.052 HD
ENDBRANCH 210 211
ENDBRANCH 197 210
ENDBRANCH 190 193
ENDBRANCH 187 190
ENDBRANCH 181 187
ENDBRANCH 177 181
ENDBRANCH 171 177
ENDBRANCH  22 171
BRANCH  20 215
ATOM    215  O   UNL     1     132.133 175.428 191.866  0.00  0.00    -0.391 OA
ATOM    216  H   UNL     1     132.728 175.177 191.140  0.00  0.00    +0.210 HD
ENDBRANCH  20 215
BRANCH  18 217
ATOM    217  O   UNL     1     134.212 172.438 193.681  0.00  0.00    -0.391 OA
ATOM    218  H   UNL     1     133.857 172.460 194.589  0.00  0.00    +0.210 HD
ENDBRANCH  18 217
BRANCH  10 219
ATOM    219  O   UNL     1     138.469 177.529 193.945  0.00  0.00    -0.391 OA
ATOM    220  H   UNL     1     137.670 177.577 193.393  0.00  0.00    +0.210 HD
ENDBRANCH  10 219
BRANCH  37 221
ATOM    221  O   UNL     1     140.019 170.055 185.884  0.00  0.00    -0.379 OA
BRANCH 221 222
ATOM    222  C   UNL     1     140.477 170.325 184.566  0.00  0.00    +0.037 C 
ATOM    223  H   UNL     1     140.128 171.322 184.283  0.00  0.00    +0.052 HD
ATOM    224  H   UNL     1     141.569 170.325 184.540  0.00  0.00    +0.052 HD
ATOM    225  H   UNL     1     140.083 169.601 183.847  0.00  0.00    +0.052 HD
ENDBRANCH 221 222
ENDBRANCH  37 221
BRANCH  16 226
ATOM    226  O   UNL     1     135.105 171.823 189.581  0.00  0.00    -0.379 OA
BRANCH 226 227
ATOM    227  C   UNL     1     135.668 170.540 189.331  0.00  0.00    +0.037 C 
ATOM    228  H   UNL     1     136.757 170.639 189.317  0.00  0.00    +0.052 HD
ATOM    229  H   UNL     1     135.393 169.838 190.123  0.00  0.00    +0.052 HD
ATOM    230  H   UNL     1     135.341 170.157 188.359  0.00  0.00    +0.052 HD
ENDBRANCH 226 227
ENDBRANCH  16 226
TORSDOF 40
ENDMDL
