MODEL 1
REMARK VINA RESULT:      -5.0      0.000      0.000
REMARK  Name = Swinholide A_conf1
REMARK  40 active torsions:
REMARK  status: ('A' for Active; 'I' for Inactive)
REMARK    1  A    between atoms: C_1  and  C_2
REMARK    2  A    between atoms: C_4  and  C_10
REMARK    3  A    between atoms: C_6  and  O_8
REMARK    4  A    between atoms: O_8  and  C_9
REMARK    5  A    between atoms: C_10  and  C_11
REMARK    6  A    between atoms: C_11  and  C_12
REMARK    7  A    between atoms: C_12  and  C_13
REMARK    8  A    between atoms: C_12  and  C_98
REMARK    9  A    between atoms: C_13  and  O_14
REMARK   10  A    between atoms: C_13  and  C_15
REMARK   11  A    between atoms: C_15  and  C_16
REMARK   12  A    between atoms: C_15  and  C_97
REMARK   13  A    between atoms: C_22  and  C_96
REMARK   14  A    between atoms: C_25  and  O_95
REMARK   15  A    between atoms: C_31  and  O_90
REMARK   16  A    between atoms: C_32  and  C_89
REMARK   17  A    between atoms: C_33  and  O_88
REMARK   18  A    between atoms: C_35  and  O_87
REMARK   19  A    between atoms: C_36  and  C_86
REMARK   20  A    between atoms: C_37  and  C_69
REMARK   21  A    between atoms: C_43  and  C_68
REMARK   22  A    between atoms: C_46  and  O_67
REMARK   23  A    between atoms: C_52  and  O_62
REMARK   24  A    between atoms: C_53  and  C_61
REMARK   25  A    between atoms: C_54  and  O_60
REMARK   26  A    between atoms: C_56  and  O_59
REMARK   27  A    between atoms: C_57  and  C_58
REMARK   28  A    between atoms: O_62  and  C_63
REMARK   29  A    between atoms: C_69  and  C_70
REMARK   30  A    between atoms: C_69  and  C_85
REMARK   31  A    between atoms: C_70  and  O_71
REMARK   32  A    between atoms: C_70  and  C_72
REMARK   33  A    between atoms: C_72  and  C_73
REMARK   34  A    between atoms: C_72  and  C_84
REMARK   35  A    between atoms: C_73  and  C_74
REMARK   36  A    between atoms: C_74  and  C_75
REMARK   37  A    between atoms: C_77  and  C_83
REMARK   38  A    between atoms: C_79  and  O_81
REMARK   39  A    between atoms: O_81  and  C_82
REMARK   40  A    between atoms: O_90  and  C_91
REMARK                            x       y       z     vdW  Elec       q    Type
REMARK                         _______ _______ _______ _____ _____    ______ ____
ROOT
ATOM      1  C   UNL     1     148.868 167.349 191.408  0.00  0.00    +0.113 C 
ATOM      2  O   UNL     1     150.128 167.355 190.682  0.00  0.00    -0.458 OA
ATOM      3  C   UNL     1     151.256 167.330 191.445  0.00  0.00    +0.332 C 
ATOM      4  O   UNL     1     151.301 167.348 192.670  0.00  0.00    -0.246 OA
ATOM      5  C   UNL     1     152.489 167.283 190.645  0.00  0.00    +0.023 C 
ATOM      6  C   UNL     1     152.566 166.812 189.392  0.00  0.00    -0.052 C 
ATOM      7  C   UNL     1     153.808 166.637 188.646  0.00  0.00    -0.054 C 
ATOM      8  C   UNL     1     154.907 166.106 189.222  0.00  0.00    -0.079 C 
ATOM      9  C   UNL     1     156.162 165.673 188.506  0.00  0.00    -0.008 C 
ATOM     10  C   UNL     1     156.886 164.474 189.150  0.00  0.00    +0.061 C 
ATOM     11  C   UNL     1     156.047 163.263 189.581  0.00  0.00    +0.003 C 
ATOM     12  C   UNL     1     155.399 162.389 188.491  0.00  0.00    +0.080 C 
ATOM     13  O   UNL     1     155.080 161.151 189.176  0.00  0.00    -0.369 OA
ATOM     14  C   UNL     1     154.002 160.371 188.636  0.00  0.00    +0.065 C 
ATOM     15  C   UNL     1     154.388 159.759 187.272  0.00  0.00    +0.000 C 
ATOM     16  C   UNL     1     153.337 158.776 186.713  0.00  0.00    +0.066 C 
ATOM     17  C   UNL     1     153.776 158.266 185.306  0.00  0.00    +0.009 C 
ATOM     18  C   UNL     1     152.722 158.557 184.206  0.00  0.00    +0.063 C 
ATOM     19  C   UNL     1     152.530 160.065 183.929  0.00  0.00    -0.000 C 
ATOM     20  C   UNL     1     151.652 160.304 182.683  0.00  0.00    +0.064 C 
ATOM     21  C   UNL     1     151.557 161.788 182.212  0.00  0.00    +0.020 C 
ATOM     22  C   UNL     1     151.013 162.764 183.302  0.00  0.00    +0.113 C 
ATOM     23  O   UNL     1     149.679 162.310 183.655  0.00  0.00    -0.458 OA
ATOM     24  C   UNL     1     149.398 162.231 184.983  0.00  0.00    +0.332 C 
ATOM     25  O   UNL     1     150.113 162.612 185.894  0.00  0.00    -0.246 OA
ATOM     26  C   UNL     1     148.052 161.639 185.156  0.00  0.00    +0.023 C 
ATOM     27  C   UNL     1     147.581 161.434 186.395  0.00  0.00    -0.052 C 
ATOM     28  C   UNL     1     146.273 160.891 186.736  0.00  0.00    -0.054 C 
ATOM     29  C   UNL     1     145.140 161.412 186.221  0.00  0.00    -0.079 C 
ATOM     30  C   UNL     1     143.725 160.992 186.512  0.00  0.00    -0.008 C 
ATOM     31  C   UNL     1     142.937 161.951 187.436  0.00  0.00    +0.061 C 
ATOM     32  C   UNL     1     142.399 163.193 186.695  0.00  0.00    +0.003 C 
ATOM     33  C   UNL     1     141.392 164.016 187.529  0.00  0.00    +0.080 C 
ATOM     34  O   UNL     1     142.058 164.876 188.470  0.00  0.00    -0.369 OA
ATOM     35  C   UNL     1     142.244 166.254 188.075  0.00  0.00    +0.065 C 
ATOM     36  C   UNL     1     142.880 166.949 189.291  0.00  0.00    +0.000 C 
ATOM     37  C   UNL     1     143.292 168.437 189.185  0.00  0.00    +0.066 C 
ATOM     38  C   UNL     1     144.398 168.668 188.109  0.00  0.00    +0.009 C 
ATOM     39  C   UNL     1     145.588 169.536 188.605  0.00  0.00    +0.063 C 
ATOM     40  C   UNL     1     146.155 169.111 189.969  0.00  0.00    -0.000 C 
ATOM     41  C   UNL     1     147.676 169.330 190.076  0.00  0.00    +0.064 C 
ATOM     42  C   UNL     1     148.224 168.781 191.427  0.00  0.00    +0.020 C 
ATOM     43  C   UNL     1     140.910 166.899 187.671  0.00  0.00    -0.008 C 
ATOM     44  C   UNL     1     140.175 166.049 186.689  0.00  0.00    -0.083 C 
ATOM     45  C   UNL     1     140.407 164.735 186.638  0.00  0.00    -0.059 C 
ATOM     46  C   UNL     1     152.721 161.223 188.642  0.00  0.00    -0.008 C 
ATOM     47  C   UNL     1     152.950 162.520 187.938  0.00  0.00    -0.083 C 
ATOM     48  C   UNL     1     154.187 163.026 187.852  0.00  0.00    -0.059 C 
ATOM     49  H   UNL     1     149.080 167.134 192.466  0.00  0.00    +0.074 HD
ATOM     50  H   UNL     1     153.376 167.585 191.193  0.00  0.00    +0.069 HD
ATOM     51  H   UNL     1     151.674 166.480 188.865  0.00  0.00    +0.062 HD
ATOM     52  H   UNL     1     154.890 165.887 190.288  0.00  0.00    +0.058 HD
ATOM     53  H   UNL     1     155.972 165.446 187.451  0.00  0.00    +0.033 HD
ATOM     54  H   UNL     1     156.860 166.521 188.497  0.00  0.00    +0.033 HD
ATOM     55  H   UNL     1     157.382 164.855 190.052  0.00  0.00    +0.060 HD
ATOM     56  H   UNL     1     155.284 163.564 190.309  0.00  0.00    +0.032 HD
ATOM     57  H   UNL     1     156.722 162.606 190.150  0.00  0.00    +0.032 HD
ATOM     58  H   UNL     1     156.132 162.144 187.715  0.00  0.00    +0.064 HD
ATOM     59  H   UNL     1     153.855 159.549 189.348  0.00  0.00    +0.060 HD
ATOM     60  H   UNL     1     155.342 159.230 187.408  0.00  0.00    +0.032 HD
ATOM     61  H   UNL     1     154.582 160.548 186.537  0.00  0.00    +0.032 HD
ATOM     62  H   UNL     1     152.380 159.304 186.641  0.00  0.00    +0.060 HD
ATOM     63  H   UNL     1     154.683 158.808 185.001  0.00  0.00    +0.035 HD
ATOM     64  H   UNL     1     153.052 158.077 183.276  0.00  0.00    +0.060 HD
ATOM     65  H   UNL     1     152.039 160.522 184.796  0.00  0.00    +0.032 HD
ATOM     66  H   UNL     1     153.510 160.537 183.795  0.00  0.00    +0.032 HD
ATOM     67  H   UNL     1     152.059 159.715 181.850  0.00  0.00    +0.060 HD
ATOM     68  H   UNL     1     150.837 161.783 181.384  0.00  0.00    +0.036 HD
ATOM     69  H   UNL     1     151.688 162.684 184.161  0.00  0.00    +0.074 HD
ATOM     70  H   UNL     1     147.491 161.388 184.266  0.00  0.00    +0.069 HD
ATOM     71  H   UNL     1     148.211 161.682 187.251  0.00  0.00    +0.062 HD
ATOM     72  H   UNL     1     145.216 162.224 185.501  0.00  0.00    +0.058 HD
ATOM     73  H   UNL     1     143.193 160.884 185.557  0.00  0.00    +0.033 HD
ATOM     74  H   UNL     1     143.703 159.981 186.935  0.00  0.00    +0.033 HD
ATOM     75  H   UNL     1     143.548 162.264 188.289  0.00  0.00    +0.060 HD
ATOM     76  H   UNL     1     141.899 162.842 185.783  0.00  0.00    +0.032 HD
ATOM     77  H   UNL     1     143.242 163.825 186.388  0.00  0.00    +0.032 HD
ATOM     78  H   UNL     1     140.787 163.339 188.142  0.00  0.00    +0.064 HD
ATOM     79  H   UNL     1     142.942 166.262 187.231  0.00  0.00    +0.060 HD
ATOM     80  H   UNL     1     143.771 166.371 189.579  0.00  0.00    +0.032 HD
ATOM     81  H   UNL     1     142.197 166.829 190.141  0.00  0.00    +0.032 HD
ATOM     82  H   UNL     1     143.702 168.693 190.167  0.00  0.00    +0.060 HD
ATOM     83  H   UNL     1     144.843 167.693 187.880  0.00  0.00    +0.035 HD
ATOM     84  H   UNL     1     146.376 169.452 187.845  0.00  0.00    +0.060 HD
ATOM     85  H   UNL     1     145.668 169.704 190.756  0.00  0.00    +0.032 HD
ATOM     86  H   UNL     1     145.916 168.069 190.161  0.00  0.00    +0.032 HD
ATOM     87  H   UNL     1     148.199 168.856 189.240  0.00  0.00    +0.060 HD
ATOM     88  H   UNL     1     147.381 168.732 192.131  0.00  0.00    +0.036 HD
ATOM     89  H   UNL     1     141.079 167.883 187.223  0.00  0.00    +0.033 HD
ATOM     90  H   UNL     1     140.261 167.035 188.545  0.00  0.00    +0.033 HD
ATOM     91  H   UNL     1     139.425 166.511 186.055  0.00  0.00    +0.057 HD
ATOM     92  H   UNL     1     139.837 164.123 185.942  0.00  0.00    +0.059 HD
ATOM     93  H   UNL     1     152.435 161.454 189.676  0.00  0.00    +0.033 HD
ATOM     94  H   UNL     1     151.882 160.690 188.189  0.00  0.00    +0.033 HD
ATOM     95  H   UNL     1     152.105 163.032 187.488  0.00  0.00    +0.057 HD
ATOM     96  H   UNL     1     154.335 163.937 187.283  0.00  0.00    +0.059 HD
ENDROOT
BRANCH  28  97
ATOM     97  C   UNL     1     146.327 159.797 187.772  0.00  0.00    -0.040 C 
ATOM     98  H   UNL     1     147.136 159.978 188.490  0.00  0.00    +0.028 HD
ATOM     99  H   UNL     1     146.509 158.831 187.289  0.00  0.00    +0.028 HD
ATOM    100  H   UNL     1     145.408 159.710 188.358  0.00  0.00    +0.028 HD
ENDBRANCH  28  97
BRANCH  21 101
ATOM    101  C   UNL     1     152.911 162.241 181.652  0.00  0.00    -0.057 C 
ATOM    102  H   UNL     1     153.600 162.537 182.450  0.00  0.00    +0.023 HD
ATOM    103  H   UNL     1     152.795 163.092 180.974  0.00  0.00    +0.023 HD
ATOM    104  H   UNL     1     153.385 161.442 181.072  0.00  0.00    +0.023 HD
ENDBRANCH  21 101
BRANCH  42 105
ATOM    105  C   UNL     1     149.224 169.772 192.069  0.00  0.00    -0.057 C 
ATOM    106  H   UNL     1     150.155 169.268 192.349  0.00  0.00    +0.023 HD
ATOM    107  H   UNL     1     149.467 170.597 191.389  0.00  0.00    +0.023 HD
ATOM    108  H   UNL     1     148.816 170.201 192.992  0.00  0.00    +0.023 HD
ENDBRANCH  42 105
BRANCH  17 109
ATOM    109  C   UNL     1     154.149 156.777 185.292  0.00  0.00    -0.058 C 
ATOM    110  H   UNL     1     155.220 156.619 185.449  0.00  0.00    +0.023 HD
ATOM    111  H   UNL     1     153.618 156.241 186.087  0.00  0.00    +0.023 HD
ATOM    112  H   UNL     1     153.865 156.312 184.342  0.00  0.00    +0.023 HD
ENDBRANCH  17 109
BRANCH  38 113
ATOM    113  C   UNL     1     143.852 169.243 186.791  0.00  0.00    -0.058 C 
ATOM    114  H   UNL     1     143.136 168.569 186.308  0.00  0.00    +0.023 HD
ATOM    115  H   UNL     1     144.658 169.442 186.079  0.00  0.00    +0.023 HD
ATOM    116  H   UNL     1     143.330 170.191 186.970  0.00  0.00    +0.023 HD
ENDBRANCH  38 113
BRANCH   7 117
ATOM    117  C   UNL     1     153.704 166.994 187.189  0.00  0.00    -0.040 C 
ATOM    118  H   UNL     1     152.845 167.651 187.012  0.00  0.00    +0.028 HD
ATOM    119  H   UNL     1     153.582 166.091 186.587  0.00  0.00    +0.028 HD
ATOM    120  H   UNL     1     154.583 167.530 186.825  0.00  0.00    +0.028 HD
ENDBRANCH   7 117
BRANCH   1 121
ATOM    121  C   UNL     1     148.027 166.098 190.958  0.00  0.00    +0.020 C 
ATOM    122  H   UNL     1     148.730 165.256 191.063  0.00  0.00    +0.036 HD
BRANCH 121 123
ATOM    123  C   UNL     1     146.889 165.874 191.971  0.00  0.00    -0.057 C 
ATOM    124  H   UNL     1     147.146 165.088 192.685  0.00  0.00    +0.023 HD
ATOM    125  H   UNL     1     145.951 165.597 191.488  0.00  0.00    +0.023 HD
ATOM    126  H   UNL     1     146.702 166.762 192.583  0.00  0.00    +0.023 HD
ENDBRANCH 121 123
BRANCH 121 127
ATOM    127  C   UNL     1     147.565 166.045 189.462  0.00  0.00    +0.064 C 
ATOM    128  H   UNL     1     146.759 166.761 189.327  0.00  0.00    +0.060 HD
BRANCH 127 129
ATOM    129  C   UNL     1     147.080 164.683 188.860  0.00  0.00    -0.017 C 
ATOM    130  H   UNL     1     147.563 163.876 189.427  0.00  0.00    +0.032 HD
BRANCH 129 131
ATOM    131  C   UNL     1     145.578 164.411 188.917  0.00  0.00    -0.060 C 
ATOM    132  H   UNL     1     145.023 165.324 189.146  0.00  0.00    +0.023 HD
ATOM    133  H   UNL     1     145.209 163.970 187.988  0.00  0.00    +0.023 HD
ATOM    134  H   UNL     1     145.342 163.708 189.727  0.00  0.00    +0.023 HD
ENDBRANCH 129 131
BRANCH 129 135
ATOM    135  C   UNL     1     147.529 164.539 187.375  0.00  0.00    -0.046 C 
ATOM    136  H   UNL     1     147.939 163.536 187.210  0.00  0.00    +0.027 HD
ATOM    137  H   UNL     1     148.358 165.226 187.188  0.00  0.00    +0.027 HD
BRANCH 135 138
ATOM    138  C   UNL     1     146.434 164.837 186.350  0.00  0.00    -0.026 C 
ATOM    139  H   UNL     1     145.489 165.011 186.872  0.00  0.00    +0.029 HD
ATOM    140  H   UNL     1     146.270 163.961 185.719  0.00  0.00    +0.029 HD
BRANCH 138 143
ATOM    141  C   UNL     1     147.257 168.395 185.572  0.00  0.00    +0.059 C 
ATOM    142  O   UNL     1     146.772 167.233 186.262  0.00  0.00    -0.373 OA
ATOM    143  C   UNL     1     146.757 166.049 185.459  0.00  0.00    +0.061 C 
ATOM    144  C   UNL     1     145.736 166.213 184.333  0.00  0.00    -0.000 C 
ATOM    145  C   UNL     1     145.629 167.658 183.832  0.00  0.00    +0.063 C 
ATOM    146  C   UNL     1     146.944 168.386 184.076  0.00  0.00    -0.000 C 
ATOM    147  H   UNL     1     146.730 169.243 186.026  0.00  0.00    +0.059 HD
ATOM    148  H   UNL     1     147.758 165.920 185.035  0.00  0.00    +0.060 HD
ATOM    149  H   UNL     1     145.992 165.532 183.516  0.00  0.00    +0.032 HD
ATOM    150  H   UNL     1     144.736 165.912 184.669  0.00  0.00    +0.032 HD
ATOM    151  H   UNL     1     144.818 168.159 184.378  0.00  0.00    +0.060 HD
ATOM    152  H   UNL     1     147.737 167.885 183.503  0.00  0.00    +0.032 HD
ATOM    153  H   UNL     1     146.922 169.414 183.697  0.00  0.00    +0.032 HD
BRANCH 141 154
ATOM    154  C   UNL     1     148.748 168.576 185.834  0.00  0.00    -0.039 C 
ATOM    155  H   UNL     1     149.346 168.210 184.995  0.00  0.00    +0.025 HD
ATOM    156  H   UNL     1     148.991 169.631 185.999  0.00  0.00    +0.025 HD
ATOM    157  H   UNL     1     149.057 168.007 186.715  0.00  0.00    +0.025 HD
ENDBRANCH 141 154
BRANCH 145 158
ATOM    158  O   UNL     1     145.296 167.604 182.441  0.00  0.00    -0.380 OA
BRANCH 158 159
ATOM    159  C   UNL     1     146.325 167.052 181.630  0.00  0.00    +0.037 C 
ATOM    160  H   UNL     1     146.783 167.865 181.060  0.00  0.00    +0.052 HD
ATOM    161  H   UNL     1     145.910 166.332 180.917  0.00  0.00    +0.052 HD
ATOM    162  H   UNL     1     147.099 166.575 182.239  0.00  0.00    +0.052 HD
ENDBRANCH 158 159
ENDBRANCH 145 158
ENDBRANCH 138 143
ENDBRANCH 135 138
ENDBRANCH 129 135
ENDBRANCH 127 129
BRANCH 127 163
ATOM    163  O   UNL     1     148.609 166.487 188.584  0.00  0.00    -0.391 OA
ATOM    164  H   UNL     1     149.070 167.240 188.989  0.00  0.00    +0.210 HD
ENDBRANCH 127 163
ENDBRANCH 121 127
ENDBRANCH   1 121
BRANCH  41 165
ATOM    165  O   UNL     1     147.925 170.735 189.972  0.00  0.00    -0.391 OA
ATOM    166  H   UNL     1     147.134 171.173 189.595  0.00  0.00    +0.210 HD
ENDBRANCH  41 165
BRANCH  39 167
ATOM    167  O   UNL     1     145.262 170.923 188.684  0.00  0.00    -0.391 OA
ATOM    168  H   UNL     1     146.094 171.433 188.641  0.00  0.00    +0.210 HD
ENDBRANCH  39 167
BRANCH  31 169
ATOM    169  O   UNL     1     141.823 161.208 187.951  0.00  0.00    -0.391 OA
ATOM    170  H   UNL     1     141.385 160.782 187.194  0.00  0.00    +0.210 HD
ENDBRANCH  31 169
BRANCH  22 171
ATOM    171  C   UNL     1     150.960 164.271 182.864  0.00  0.00    +0.020 C 
ATOM    172  H   UNL     1     151.223 164.298 181.801  0.00  0.00    +0.036 HD
BRANCH 171 173
ATOM    173  C   UNL     1     149.559 164.866 183.029  0.00  0.00    -0.057 C 
ATOM    174  H   UNL     1     148.932 164.226 183.653  0.00  0.00    +0.023 HD
ATOM    175  H   UNL     1     149.056 164.991 182.065  0.00  0.00    +0.023 HD
ATOM    176  H   UNL     1     149.592 165.857 183.490  0.00  0.00    +0.023 HD
ENDBRANCH 171 173
BRANCH 171 177
ATOM    177  C   UNL     1     152.030 165.110 183.611  0.00  0.00    +0.064 C 
ATOM    178  H   UNL     1     151.704 166.155 183.639  0.00  0.00    +0.060 HD
BRANCH 177 179
ATOM    179  O   UNL     1     152.089 164.637 184.958  0.00  0.00    -0.391 OA
ATOM    180  H   UNL     1     151.941 163.666 184.917  0.00  0.00    +0.210 HD
ENDBRANCH 177 179
BRANCH 177 181
ATOM    181  C   UNL     1     153.470 165.111 183.022  0.00  0.00    -0.017 C 
ATOM    182  H   UNL     1     153.746 164.071 182.807  0.00  0.00    +0.032 HD
BRANCH 181 183
ATOM    183  C   UNL     1     153.466 165.861 181.677  0.00  0.00    -0.060 C 
ATOM    184  H   UNL     1     153.745 166.913 181.803  0.00  0.00    +0.023 HD
ATOM    185  H   UNL     1     154.159 165.410 180.961  0.00  0.00    +0.023 HD
ATOM    186  H   UNL     1     152.477 165.835 181.217  0.00  0.00    +0.023 HD
ENDBRANCH 181 183
BRANCH 181 187
ATOM    187  C   UNL     1     154.536 165.719 183.962  0.00  0.00    -0.046 C 
ATOM    188  H   UNL     1     155.213 164.935 184.319  0.00  0.00    +0.027 HD
ATOM    189  H   UNL     1     154.046 166.140 184.848  0.00  0.00    +0.027 HD
BRANCH 187 190
ATOM    190  C   UNL     1     155.389 166.795 183.269  0.00  0.00    -0.026 C 
ATOM    191  H   UNL     1     154.793 167.289 182.498  0.00  0.00    +0.029 HD
ATOM    192  H   UNL     1     156.228 166.311 182.754  0.00  0.00    +0.029 HD
BRANCH 190 193
ATOM    193  C   UNL     1     155.941 167.847 184.248  0.00  0.00    +0.061 C 
ATOM    194  O   UNL     1     156.571 168.943 183.579  0.00  0.00    -0.373 OA
ATOM    195  C   UNL     1     157.807 168.626 182.933  0.00  0.00    +0.059 C 
ATOM    196  C   UNL     1     158.822 168.076 183.933  0.00  0.00    -0.000 C 
ATOM    197  C   UNL     1     158.248 166.877 184.688  0.00  0.00    +0.063 C 
ATOM    198  C   UNL     1     156.890 167.247 185.286  0.00  0.00    -0.000 C 
ATOM    199  H   UNL     1     155.086 168.272 184.787  0.00  0.00    +0.060 HD
ATOM    200  H   UNL     1     157.623 167.897 182.136  0.00  0.00    +0.059 HD
ATOM    201  H   UNL     1     159.098 168.851 184.661  0.00  0.00    +0.032 HD
ATOM    202  H   UNL     1     159.746 167.800 183.414  0.00  0.00    +0.032 HD
ATOM    203  H   UNL     1     158.122 166.026 184.007  0.00  0.00    +0.060 HD
ATOM    204  H   UNL     1     157.056 167.983 186.086  0.00  0.00    +0.032 HD
ATOM    205  H   UNL     1     156.443 166.373 185.777  0.00  0.00    +0.032 HD
BRANCH 195 206
ATOM    206  C   UNL     1     158.323 169.906 182.285  0.00  0.00    -0.039 C 
ATOM    207  H   UNL     1     159.287 170.191 182.720  0.00  0.00    +0.025 HD
ATOM    208  H   UNL     1     157.618 170.731 182.425  0.00  0.00    +0.025 HD
ATOM    209  H   UNL     1     158.491 169.762 181.212  0.00  0.00    +0.025 HD
ENDBRANCH 195 206
BRANCH 197 210
ATOM    210  O   UNL     1     159.097 166.482 185.774  0.00  0.00    -0.380 OA
BRANCH 210 211
ATOM    211  C   UNL     1     160.419 166.999 185.685  0.00  0.00    +0.037 C 
ATOM    212  H   UNL     1     160.845 167.013 186.693  0.00  0.00    +0.052 HD
ATOM    213  H   UNL     1     160.414 168.024 185.304  0.00  0.00    +0.052 HD
ATOM    214  H   UNL     1     161.043 166.362 185.052  0.00  0.00    +0.052 HD
ENDBRANCH 210 211
ENDBRANCH 197 210
ENDBRANCH 190 193
ENDBRANCH 187 190
ENDBRANCH 181 187
ENDBRANCH 177 181
ENDBRANCH 171 177
ENDBRANCH  22 171
BRANCH  20 215
ATOM    215  O   UNL     1     150.353 159.754 182.944  0.00  0.00    -0.391 OA
ATOM    216  H   UNL     1     149.978 160.233 183.705  0.00  0.00    +0.210 HD
ENDBRANCH  20 215
BRANCH  18 217
ATOM    217  O   UNL     1     151.474 157.960 184.561  0.00  0.00    -0.391 OA
ATOM    218  H   UNL     1     151.545 157.010 184.330  0.00  0.00    +0.210 HD
ENDBRANCH  18 217
BRANCH  10 219
ATOM    219  O   UNL     1     157.929 164.051 188.267  0.00  0.00    -0.391 OA
ATOM    220  H   UNL     1     158.685 163.780 188.820  0.00  0.00    +0.210 HD
ENDBRANCH  10 219
BRANCH  37 221
ATOM    221  O   UNL     1     142.197 169.324 188.959  0.00  0.00    -0.379 OA
BRANCH 221 222
ATOM    222  C   UNL     1     141.985 170.272 189.997  0.00  0.00    +0.037 C 
ATOM    223  H   UNL     1     142.912 170.835 190.134  0.00  0.00    +0.052 HD
ATOM    224  H   UNL     1     141.196 170.979 189.729  0.00  0.00    +0.052 HD
ATOM    225  H   UNL     1     141.740 169.770 190.937  0.00  0.00    +0.052 HD
ENDBRANCH 221 222
ENDBRANCH  37 221
BRANCH  16 226
ATOM    226  O   UNL     1     153.231 157.705 187.664  0.00  0.00    -0.379 OA
BRANCH 226 227
ATOM    227  C   UNL     1     151.883 157.348 187.945  0.00  0.00    +0.037 C 
ATOM    228  H   UNL     1     151.772 156.959 188.962  0.00  0.00    +0.052 HD
ATOM    229  H   UNL     1     151.542 156.603 187.218  0.00  0.00    +0.052 HD
ATOM    230  H   UNL     1     151.260 158.243 187.848  0.00  0.00    +0.052 HD
ENDBRANCH 226 227
ENDBRANCH  16 226
TORSDOF 40
ENDMDL
MODEL 2
REMARK VINA RESULT:      -4.9      4.941     11.714
REMARK  Name = Swinholide A_conf1
REMARK  40 active torsions:
REMARK  status: ('A' for Active; 'I' for Inactive)
REMARK    1  A    between atoms: C_1  and  C_2
REMARK    2  A    between atoms: C_4  and  C_10
REMARK    3  A    between atoms: C_6  and  O_8
REMARK    4  A    between atoms: O_8  and  C_9
REMARK    5  A    between atoms: C_10  and  C_11
REMARK    6  A    between atoms: C_11  and  C_12
REMARK    7  A    between atoms: C_12  and  C_13
REMARK    8  A    between atoms: C_12  and  C_98
REMARK    9  A    between atoms: C_13  and  O_14
REMARK   10  A    between atoms: C_13  and  C_15
REMARK   11  A    between atoms: C_15  and  C_16
REMARK   12  A    between atoms: C_15  and  C_97
REMARK   13  A    between atoms: C_22  and  C_96
REMARK   14  A    between atoms: C_25  and  O_95
REMARK   15  A    between atoms: C_31  and  O_90
REMARK   16  A    between atoms: C_32  and  C_89
REMARK   17  A    between atoms: C_33  and  O_88
REMARK   18  A    between atoms: C_35  and  O_87
REMARK   19  A    between atoms: C_36  and  C_86
REMARK   20  A    between atoms: C_37  and  C_69
REMARK   21  A    between atoms: C_43  and  C_68
REMARK   22  A    between atoms: C_46  and  O_67
REMARK   23  A    between atoms: C_52  and  O_62
REMARK   24  A    between atoms: C_53  and  C_61
REMARK   25  A    between atoms: C_54  and  O_60
REMARK   26  A    between atoms: C_56  and  O_59
REMARK   27  A    between atoms: C_57  and  C_58
REMARK   28  A    between atoms: O_62  and  C_63
REMARK   29  A    between atoms: C_69  and  C_70
REMARK   30  A    between atoms: C_69  and  C_85
REMARK   31  A    between atoms: C_70  and  O_71
REMARK   32  A    between atoms: C_70  and  C_72
REMARK   33  A    between atoms: C_72  and  C_73
REMARK   34  A    between atoms: C_72  and  C_84
REMARK   35  A    between atoms: C_73  and  C_74
REMARK   36  A    between atoms: C_74  and  C_75
REMARK   37  A    between atoms: C_77  and  C_83
REMARK   38  A    between atoms: C_79  and  O_81
REMARK   39  A    between atoms: O_81  and  C_82
REMARK   40  A    between atoms: O_90  and  C_91
REMARK                            x       y       z     vdW  Elec       q    Type
REMARK                         _______ _______ _______ _____ _____    ______ ____
ROOT
ATOM      1  C   UNL     1     145.946 173.723 183.530  0.00  0.00    +0.113 C 
ATOM      2  O   UNL     1     145.874 172.275 183.410  0.00  0.00    -0.458 OA
ATOM      3  C   UNL     1     146.938 171.673 182.810  0.00  0.00    +0.332 C 
ATOM      4  O   UNL     1     147.913 172.240 182.329  0.00  0.00    -0.246 OA
ATOM      5  C   UNL     1     146.822 170.207 182.772  0.00  0.00    +0.023 C 
ATOM      6  C   UNL     1     146.086 169.480 183.625  0.00  0.00    -0.052 C 
ATOM      7  C   UNL     1     146.076 168.021 183.677  0.00  0.00    -0.054 C 
ATOM      8  C   UNL     1     147.218 167.307 183.599  0.00  0.00    -0.079 C 
ATOM      9  C   UNL     1     147.358 165.828 183.863  0.00  0.00    -0.008 C 
ATOM     10  C   UNL     1     148.716 165.410 184.460  0.00  0.00    +0.061 C 
ATOM     11  C   UNL     1     149.288 166.237 185.620  0.00  0.00    +0.003 C 
ATOM     12  C   UNL     1     148.579 166.181 186.986  0.00  0.00    +0.080 C 
ATOM     13  O   UNL     1     149.571 166.681 187.917  0.00  0.00    -0.369 OA
ATOM     14  C   UNL     1     149.080 167.276 189.129  0.00  0.00    +0.065 C 
ATOM     15  C   UNL     1     148.447 166.214 190.053  0.00  0.00    +0.000 C 
ATOM     16  C   UNL     1     148.046 166.758 191.441  0.00  0.00    +0.066 C 
ATOM     17  C   UNL     1     147.351 165.638 192.275  0.00  0.00    +0.009 C 
ATOM     18  C   UNL     1     145.927 166.033 192.744  0.00  0.00    +0.063 C 
ATOM     19  C   UNL     1     144.926 166.201 191.579  0.00  0.00    -0.000 C 
ATOM     20  C   UNL     1     143.481 166.368 192.094  0.00  0.00    +0.064 C 
ATOM     21  C   UNL     1     142.377 166.354 190.992  0.00  0.00    +0.020 C 
ATOM     22  C   UNL     1     142.561 167.452 189.897  0.00  0.00    +0.113 C 
ATOM     23  O   UNL     1     142.519 168.738 190.570  0.00  0.00    -0.458 OA
ATOM     24  C   UNL     1     143.490 169.629 190.235  0.00  0.00    +0.332 C 
ATOM     25  O   UNL     1     144.316 169.494 189.349  0.00  0.00    -0.246 OA
ATOM     26  C   UNL     1     143.366 170.824 191.100  0.00  0.00    +0.023 C 
ATOM     27  C   UNL     1     144.251 171.823 190.966  0.00  0.00    -0.052 C 
ATOM     28  C   UNL     1     144.251 173.074 191.714  0.00  0.00    -0.054 C 
ATOM     29  C   UNL     1     143.148 173.848 191.789  0.00  0.00    -0.079 C 
ATOM     30  C   UNL     1     143.010 175.177 192.480  0.00  0.00    -0.008 C 
ATOM     31  C   UNL     1     142.973 176.402 191.535  0.00  0.00    +0.061 C 
ATOM     32  C   UNL     1     141.593 176.616 190.879  0.00  0.00    +0.003 C 
ATOM     33  C   UNL     1     141.463 177.974 190.153  0.00  0.00    +0.080 C 
ATOM     34  O   UNL     1     142.067 177.940 188.849  0.00  0.00    -0.369 OA
ATOM     35  C   UNL     1     141.185 177.711 187.728  0.00  0.00    +0.065 C 
ATOM     36  C   UNL     1     142.073 177.823 186.476  0.00  0.00    +0.000 C 
ATOM     37  C   UNL     1     141.457 177.551 185.083  0.00  0.00    +0.066 C 
ATOM     38  C   UNL     1     140.942 176.085 184.941  0.00  0.00    +0.009 C 
ATOM     39  C   UNL     1     141.402 175.379 183.635  0.00  0.00    +0.063 C 
ATOM     40  C   UNL     1     142.903 175.522 183.334  0.00  0.00    -0.000 C 
ATOM     41  C   UNL     1     143.492 174.278 182.641  0.00  0.00    +0.064 C 
ATOM     42  C   UNL     1     145.033 174.421 182.460  0.00  0.00    +0.020 C 
ATOM     43  C   UNL     1     140.032 178.725 187.714  0.00  0.00    -0.008 C 
ATOM     44  C   UNL     1     139.362 178.798 189.046  0.00  0.00    -0.083 C 
ATOM     45  C   UNL     1     140.030 178.452 190.149  0.00  0.00    -0.059 C 
ATOM     46  C   UNL     1     148.174 168.465 188.766  0.00  0.00    -0.008 C 
ATOM     47  C   UNL     1     147.104 168.038 187.816  0.00  0.00    -0.083 C 
ATOM     48  C   UNL     1     147.293 166.972 187.028  0.00  0.00    -0.059 C 
ATOM     49  H   UNL     1     146.965 174.042 183.265  0.00  0.00    +0.074 HD
ATOM     50  H   UNL     1     147.467 169.738 182.036  0.00  0.00    +0.069 HD
ATOM     51  H   UNL     1     145.469 169.962 184.381  0.00  0.00    +0.062 HD
ATOM     52  H   UNL     1     148.154 167.827 183.403  0.00  0.00    +0.058 HD
ATOM     53  H   UNL     1     146.557 165.452 184.509  0.00  0.00    +0.033 HD
ATOM     54  H   UNL     1     147.232 165.297 182.909  0.00  0.00    +0.033 HD
ATOM     55  H   UNL     1     149.447 165.460 183.643  0.00  0.00    +0.060 HD
ATOM     56  H   UNL     1     149.416 167.284 185.318  0.00  0.00    +0.032 HD
ATOM     57  H   UNL     1     150.313 165.874 185.783  0.00  0.00    +0.032 HD
ATOM     58  H   UNL     1     148.375 165.141 187.265  0.00  0.00    +0.064 HD
ATOM     59  H   UNL     1     149.967 167.679 189.633  0.00  0.00    +0.060 HD
ATOM     60  H   UNL     1     149.182 165.407 190.179  0.00  0.00    +0.032 HD
ATOM     61  H   UNL     1     147.574 165.755 189.571  0.00  0.00    +0.032 HD
ATOM     62  H   UNL     1     147.360 167.598 191.294  0.00  0.00    +0.060 HD
ATOM     63  H   UNL     1     147.219 164.752 191.636  0.00  0.00    +0.035 HD
ATOM     64  H   UNL     1     145.550 165.246 193.408  0.00  0.00    +0.060 HD
ATOM     65  H   UNL     1     145.199 167.095 191.006  0.00  0.00    +0.032 HD
ATOM     66  H   UNL     1     144.991 165.330 190.917  0.00  0.00    +0.032 HD
ATOM     67  H   UNL     1     143.263 165.552 192.795  0.00  0.00    +0.060 HD
ATOM     68  H   UNL     1     141.439 166.568 191.520  0.00  0.00    +0.036 HD
ATOM     69  H   UNL     1     143.546 167.284 189.446  0.00  0.00    +0.074 HD
ATOM     70  H   UNL     1     142.559 170.848 191.819  0.00  0.00    +0.069 HD
ATOM     71  H   UNL     1     145.060 171.723 190.241  0.00  0.00    +0.062 HD
ATOM     72  H   UNL     1     142.231 173.501 191.317  0.00  0.00    +0.058 HD
ATOM     73  H   UNL     1     142.094 175.157 193.088  0.00  0.00    +0.033 HD
ATOM     74  H   UNL     1     143.808 175.313 193.219  0.00  0.00    +0.033 HD
ATOM     75  H   UNL     1     143.744 176.323 190.760  0.00  0.00    +0.060 HD
ATOM     76  H   UNL     1     140.839 176.567 191.676  0.00  0.00    +0.032 HD
ATOM     77  H   UNL     1     141.392 175.794 190.182  0.00  0.00    +0.032 HD
ATOM     78  H   UNL     1     142.021 178.738 190.706  0.00  0.00    +0.064 HD
ATOM     79  H   UNL     1     140.795 176.692 187.820  0.00  0.00    +0.060 HD
ATOM     80  H   UNL     1     142.926 177.141 186.608  0.00  0.00    +0.032 HD
ATOM     81  H   UNL     1     142.526 178.823 186.475  0.00  0.00    +0.032 HD
ATOM     82  H   UNL     1     142.275 177.703 184.372  0.00  0.00    +0.060 HD
ATOM     83  H   UNL     1     141.396 175.497 185.747  0.00  0.00    +0.035 HD
ATOM     84  H   UNL     1     141.157 174.315 183.750  0.00  0.00    +0.060 HD
ATOM     85  H   UNL     1     143.051 176.386 182.670  0.00  0.00    +0.032 HD
ATOM     86  H   UNL     1     143.446 175.728 184.251  0.00  0.00    +0.032 HD
ATOM     87  H   UNL     1     143.265 173.370 183.207  0.00  0.00    +0.060 HD
ATOM     88  H   UNL     1     145.273 175.493 182.498  0.00  0.00    +0.036 HD
ATOM     89  H   UNL     1     139.285 178.447 186.963  0.00  0.00    +0.033 HD
ATOM     90  H   UNL     1     140.398 179.729 187.469  0.00  0.00    +0.033 HD
ATOM     91  H   UNL     1     138.346 179.177 189.101  0.00  0.00    +0.057 HD
ATOM     92  H   UNL     1     139.540 178.547 191.116  0.00  0.00    +0.059 HD
ATOM     93  H   UNL     1     148.767 169.244 188.269  0.00  0.00    +0.033 HD
ATOM     94  H   UNL     1     147.732 168.919 189.656  0.00  0.00    +0.033 HD
ATOM     95  H   UNL     1     146.171 168.594 187.788  0.00  0.00    +0.057 HD
ATOM     96  H   UNL     1     146.477 166.646 186.393  0.00  0.00    +0.059 HD
ENDROOT
BRANCH  28  97
ATOM     97  C   UNL     1     145.601 173.438 192.277  0.00  0.00    -0.040 C 
ATOM     98  H   UNL     1     146.299 172.597 192.194  0.00  0.00    +0.028 HD
ATOM     99  H   UNL     1     145.508 173.701 193.336  0.00  0.00    +0.028 HD
ATOM    100  H   UNL     1     146.071 174.281 191.764  0.00  0.00    +0.028 HD
ENDBRANCH  28  97
BRANCH  21 101
ATOM    101  C   UNL     1     142.265 164.948 190.390  0.00  0.00    -0.057 C 
ATOM    102  H   UNL     1     141.505 164.905 189.603  0.00  0.00    +0.023 HD
ATOM    103  H   UNL     1     142.001 164.210 191.154  0.00  0.00    +0.023 HD
ATOM    104  H   UNL     1     143.219 164.626 189.960  0.00  0.00    +0.023 HD
ENDBRANCH  21 101
BRANCH  42 105
ATOM    105  C   UNL     1     145.474 173.963 181.049  0.00  0.00    -0.057 C 
ATOM    106  H   UNL     1     146.144 174.696 180.587  0.00  0.00    +0.023 HD
ATOM    107  H   UNL     1     145.988 172.995 181.081  0.00  0.00    +0.023 HD
ATOM    108  H   UNL     1     144.612 173.868 180.378  0.00  0.00    +0.023 HD
ENDBRANCH  42 105
BRANCH  17 109
ATOM    109  C   UNL     1     148.187 165.172 193.475  0.00  0.00    -0.058 C 
ATOM    110  H   UNL     1     148.181 164.083 193.584  0.00  0.00    +0.023 HD
ATOM    111  H   UNL     1     149.231 165.485 193.361  0.00  0.00    +0.023 HD
ATOM    112  H   UNL     1     147.815 165.615 194.405  0.00  0.00    +0.023 HD
ENDBRANCH  17 109
BRANCH  38 113
ATOM    113  C   UNL     1     139.416 175.959 185.087  0.00  0.00    -0.058 C 
ATOM    114  H   UNL     1     139.119 175.007 185.541  0.00  0.00    +0.023 HD
ATOM    115  H   UNL     1     138.916 176.040 184.118  0.00  0.00    +0.023 HD
ATOM    116  H   UNL     1     139.022 176.757 185.727  0.00  0.00    +0.023 HD
ENDBRANCH  38 113
BRANCH   7 117
ATOM    117  C   UNL     1     144.720 167.426 183.932  0.00  0.00    -0.040 C 
ATOM    118  H   UNL     1     144.774 166.658 184.712  0.00  0.00    +0.028 HD
ATOM    119  H   UNL     1     144.330 166.971 183.020  0.00  0.00    +0.028 HD
ATOM    120  H   UNL     1     143.995 168.167 184.279  0.00  0.00    +0.028 HD
ENDBRANCH   7 117
BRANCH   1 121
ATOM    121  C   UNL     1     145.841 174.114 185.051  0.00  0.00    +0.020 C 
ATOM    122  H   UNL     1     146.874 174.017 185.419  0.00  0.00    +0.036 HD
BRANCH 121 123
ATOM    123  C   UNL     1     145.454 175.601 185.155  0.00  0.00    -0.057 C 
ATOM    124  H   UNL     1     145.052 175.971 184.209  0.00  0.00    +0.023 HD
ATOM    125  H   UNL     1     146.301 176.232 185.431  0.00  0.00    +0.023 HD
ATOM    126  H   UNL     1     144.658 175.769 185.887  0.00  0.00    +0.023 HD
ENDBRANCH 121 123
BRANCH 121 127
ATOM    127  C   UNL     1     144.999 173.172 185.977  0.00  0.00    +0.064 C 
ATOM    128  H   UNL     1     145.100 172.154 185.611  0.00  0.00    +0.060 HD
BRANCH 127 129
ATOM    129  C   UNL     1     143.468 173.449 186.158  0.00  0.00    -0.017 C 
ATOM    130  H   UNL     1     143.244 174.414 185.684  0.00  0.00    +0.032 HD
BRANCH 129 131
ATOM    131  C   UNL     1     142.514 172.432 185.534  0.00  0.00    -0.060 C 
ATOM    132  H   UNL     1     141.478 172.776 185.598  0.00  0.00    +0.023 HD
ATOM    133  H   UNL     1     142.775 172.212 184.496  0.00  0.00    +0.023 HD
ATOM    134  H   UNL     1     142.546 171.482 186.085  0.00  0.00    +0.023 HD
ENDBRANCH 129 131
BRANCH 129 135
ATOM    135  C   UNL     1     143.100 173.577 187.666  0.00  0.00    -0.046 C 
ATOM    136  H   UNL     1     142.735 174.589 187.871  0.00  0.00    +0.027 HD
ATOM    137  H   UNL     1     144.010 173.470 188.262  0.00  0.00    +0.027 HD
BRANCH 135 138
ATOM    138  C   UNL     1     142.091 172.540 188.162  0.00  0.00    -0.026 C 
ATOM    139  H   UNL     1     142.620 171.754 188.707  0.00  0.00    +0.029 HD
ATOM    140  H   UNL     1     141.618 172.047 187.310  0.00  0.00    +0.029 HD
BRANCH 138 143
ATOM    141  C   UNL     1     139.282 172.523 190.620  0.00  0.00    +0.059 C 
ATOM    142  O   UNL     1     140.203 172.089 189.608  0.00  0.00    -0.373 OA
ATOM    143  C   UNL     1     141.002 173.144 189.065  0.00  0.00    +0.061 C 
ATOM    144  C   UNL     1     140.105 174.117 188.298  0.00  0.00    -0.000 C 
ATOM    145  C   UNL     1     138.709 174.253 188.919  0.00  0.00    +0.063 C 
ATOM    146  C   UNL     1     138.776 173.950 190.409  0.00  0.00    -0.000 C 
ATOM    147  H   UNL     1     138.425 171.842 190.544  0.00  0.00    +0.059 HD
ATOM    148  H   UNL     1     141.482 173.665 189.901  0.00  0.00    +0.060 HD
ATOM    149  H   UNL     1     140.603 175.088 188.234  0.00  0.00    +0.032 HD
ATOM    150  H   UNL     1     139.967 173.784 187.263  0.00  0.00    +0.032 HD
ATOM    151  H   UNL     1     138.034 173.543 188.423  0.00  0.00    +0.060 HD
ATOM    152  H   UNL     1     139.436 174.685 190.891  0.00  0.00    +0.032 HD
ATOM    153  H   UNL     1     137.804 174.074 190.898  0.00  0.00    +0.032 HD
BRANCH 141 154
ATOM    154  C   UNL     1     139.899 172.344 192.003  0.00  0.00    -0.039 C 
ATOM    155  H   UNL     1     139.379 172.947 192.752  0.00  0.00    +0.025 HD
ATOM    156  H   UNL     1     139.862 171.295 192.315  0.00  0.00    +0.025 HD
ATOM    157  H   UNL     1     140.943 172.670 192.004  0.00  0.00    +0.025 HD
ENDBRANCH 141 154
BRANCH 145 158
ATOM    158  O   UNL     1     138.258 175.587 188.664  0.00  0.00    -0.380 OA
BRANCH 158 159
ATOM    159  C   UNL     1     136.992 175.882 189.241  0.00  0.00    +0.037 C 
ATOM    160  H   UNL     1     136.326 176.224 188.443  0.00  0.00    +0.052 HD
ATOM    161  H   UNL     1     137.080 176.687 189.976  0.00  0.00    +0.052 HD
ATOM    162  H   UNL     1     136.551 174.994 189.704  0.00  0.00    +0.052 HD
ENDBRANCH 158 159
ENDBRANCH 145 158
ENDBRANCH 138 143
ENDBRANCH 135 138
ENDBRANCH 129 135
ENDBRANCH 127 129
BRANCH 127 163
ATOM    163  O   UNL     1     145.530 173.147 187.308  0.00  0.00    -0.391 OA
ATOM    164  H   UNL     1     146.440 173.489 187.295  0.00  0.00    +0.210 HD
ENDBRANCH 127 163
ENDBRANCH 121 127
ENDBRANCH   1 121
BRANCH  41 165
ATOM    165  O   UNL     1     142.851 174.141 181.369  0.00  0.00    -0.391 OA
ATOM    166  H   UNL     1     143.414 174.551 180.681  0.00  0.00    +0.210 HD
ENDBRANCH  41 165
BRANCH  39 167
ATOM    167  O   UNL     1     140.685 175.827 182.486  0.00  0.00    -0.391 OA
ATOM    168  H   UNL     1     141.331 176.179 181.844  0.00  0.00    +0.210 HD
ENDBRANCH  39 167
BRANCH  31 169
ATOM    169  O   UNL     1     143.282 177.553 192.336  0.00  0.00    -0.391 OA
ATOM    170  H   UNL     1     143.963 178.060 191.861  0.00  0.00    +0.210 HD
ENDBRANCH  31 169
BRANCH  22 171
ATOM    171  C   UNL     1     141.489 167.419 188.751  0.00  0.00    +0.020 C 
ATOM    172  H   UNL     1     140.823 166.578 188.968  0.00  0.00    +0.036 HD
BRANCH 171 173
ATOM    173  C   UNL     1     140.653 168.701 188.713  0.00  0.00    -0.057 C 
ATOM    174  H   UNL     1     141.226 169.532 188.300  0.00  0.00    +0.023 HD
ATOM    175  H   UNL     1     140.313 168.992 189.712  0.00  0.00    +0.023 HD
ATOM    176  H   UNL     1     139.752 168.579 188.106  0.00  0.00    +0.023 HD
ENDBRANCH 171 173
BRANCH 171 177
ATOM    177  C   UNL     1     142.147 167.124 187.377  0.00  0.00    +0.064 C 
ATOM    178  H   UNL     1     141.466 167.445 186.582  0.00  0.00    +0.060 HD
BRANCH 177 179
ATOM    179  O   UNL     1     143.329 167.921 187.282  0.00  0.00    -0.391 OA
ATOM    180  H   UNL     1     143.781 167.649 186.451  0.00  0.00    +0.210 HD
ENDBRANCH 177 179
BRANCH 177 181
ATOM    181  C   UNL     1     142.518 165.645 187.070  0.00  0.00    -0.017 C 
ATOM    182  H   UNL     1     142.226 165.038 187.937  0.00  0.00    +0.032 HD
BRANCH 181 183
ATOM    183  C   UNL     1     141.683 165.151 185.875  0.00  0.00    -0.060 C 
ATOM    184  H   UNL     1     140.611 165.284 186.053  0.00  0.00    +0.023 HD
ATOM    185  H   UNL     1     141.942 165.682 184.954  0.00  0.00    +0.023 HD
ATOM    186  H   UNL     1     141.858 164.091 185.687  0.00  0.00    +0.023 HD
ENDBRANCH 181 183
BRANCH 181 187
ATOM    187  C   UNL     1     144.022 165.416 186.794  0.00  0.00    -0.046 C 
ATOM    188  H   UNL     1     144.585 166.335 186.989  0.00  0.00    +0.027 HD
ATOM    189  H   UNL     1     144.168 165.175 185.734  0.00  0.00    +0.027 HD
BRANCH 187 190
ATOM    190  C   UNL     1     144.620 164.304 187.675  0.00  0.00    -0.026 C 
ATOM    191  H   UNL     1     144.185 164.361 188.676  0.00  0.00    +0.029 HD
ATOM    192  H   UNL     1     145.696 164.478 187.790  0.00  0.00    +0.029 HD
BRANCH 190 193
ATOM    193  C   UNL     1     144.398 162.895 187.096  0.00  0.00    +0.061 C 
ATOM    194  O   UNL     1     143.354 162.183 187.766  0.00  0.00    -0.373 OA
ATOM    195  C   UNL     1     143.659 161.786 189.106  0.00  0.00    +0.059 C 
ATOM    196  C   UNL     1     144.897 160.894 189.144  0.00  0.00    -0.000 C 
ATOM    197  C   UNL     1     146.084 161.580 188.468  0.00  0.00    +0.063 C 
ATOM    198  C   UNL     1     145.678 162.058 187.074  0.00  0.00    -0.000 C 
ATOM    199  H   UNL     1     144.064 163.016 186.058  0.00  0.00    +0.060 HD
ATOM    200  H   UNL     1     143.812 162.679 189.723  0.00  0.00    +0.059 HD
ATOM    201  H   UNL     1     144.699 159.945 188.628  0.00  0.00    +0.032 HD
ATOM    202  H   UNL     1     145.139 160.635 190.181  0.00  0.00    +0.032 HD
ATOM    203  H   UNL     1     146.412 162.442 189.063  0.00  0.00    +0.060 HD
ATOM    204  H   UNL     1     145.515 161.173 186.442  0.00  0.00    +0.032 HD
ATOM    205  H   UNL     1     146.505 162.606 186.606  0.00  0.00    +0.032 HD
BRANCH 195 206
ATOM    206  C   UNL     1     142.440 161.047 189.649  0.00  0.00    -0.039 C 
ATOM    207  H   UNL     1     141.883 160.580 188.830  0.00  0.00    +0.025 HD
ATOM    208  H   UNL     1     141.771 161.728 190.184  0.00  0.00    +0.025 HD
ATOM    209  H   UNL     1     142.741 160.241 190.327  0.00  0.00    +0.025 HD
ENDBRANCH 195 206
BRANCH 197 210
ATOM    210  O   UNL     1     147.189 160.682 188.305  0.00  0.00    -0.380 OA
BRANCH 210 211
ATOM    211  C   UNL     1     147.316 159.731 189.355  0.00  0.00    +0.037 C 
ATOM    212  H   UNL     1     146.813 158.811 189.040  0.00  0.00    +0.052 HD
ATOM    213  H   UNL     1     146.830 160.088 190.267  0.00  0.00    +0.052 HD
ATOM    214  H   UNL     1     148.368 159.503 189.548  0.00  0.00    +0.052 HD
ENDBRANCH 210 211
ENDBRANCH 197 210
ENDBRANCH 190 193
ENDBRANCH 187 190
ENDBRANCH 181 187
ENDBRANCH 177 181
ENDBRANCH 171 177
ENDBRANCH  22 171
BRANCH  20 215
ATOM    215  O   UNL     1     143.425 167.571 192.875  0.00  0.00    -0.391 OA
ATOM    216  H   UNL     1     142.494 167.858 192.905  0.00  0.00    +0.210 HD
ENDBRANCH  20 215
BRANCH  18 217
ATOM    217  O   UNL     1     145.988 167.234 193.516  0.00  0.00    -0.391 OA
ATOM    218  H   UNL     1     145.455 167.900 193.035  0.00  0.00    +0.210 HD
ENDBRANCH  18 217
BRANCH  10 219
ATOM    219  O   UNL     1     148.635 164.033 184.841  0.00  0.00    -0.391 OA
ATOM    220  H   UNL     1     147.758 163.894 185.243  0.00  0.00    +0.210 HD
ENDBRANCH  10 219
BRANCH  37 221
ATOM    221  O   UNL     1     140.425 178.468 184.718  0.00  0.00    -0.379 OA
BRANCH 221 222
ATOM    222  C   UNL     1     140.716 179.253 183.568  0.00  0.00    +0.037 C 
ATOM    223  H   UNL     1     141.728 179.004 183.238  0.00  0.00    +0.052 HD
ATOM    224  H   UNL     1     140.028 179.025 182.752  0.00  0.00    +0.052 HD
ATOM    225  H   UNL     1     140.680 180.320 183.807  0.00  0.00    +0.052 HD
ENDBRANCH 221 222
ENDBRANCH  37 221
BRANCH  16 226
ATOM    226  O   UNL     1     149.255 167.220 192.064  0.00  0.00    -0.379 OA
BRANCH 226 227
ATOM    227  C   UNL     1     149.180 168.581 192.470  0.00  0.00    +0.037 C 
ATOM    228  H   UNL     1     149.677 169.244 191.754  0.00  0.00    +0.052 HD
ATOM    229  H   UNL     1     149.631 168.693 193.462  0.00  0.00    +0.052 HD
ATOM    230  H   UNL     1     148.125 168.867 192.531  0.00  0.00    +0.052 HD
ENDBRANCH 226 227
ENDBRANCH  16 226
TORSDOF 40
ENDMDL
MODEL 3
REMARK VINA RESULT:      -4.8      5.372     12.416
REMARK  Name = Swinholide A_conf1
REMARK  40 active torsions:
REMARK  status: ('A' for Active; 'I' for Inactive)
REMARK    1  A    between atoms: C_1  and  C_2
REMARK    2  A    between atoms: C_4  and  C_10
REMARK    3  A    between atoms: C_6  and  O_8
REMARK    4  A    between atoms: O_8  and  C_9
REMARK    5  A    between atoms: C_10  and  C_11
REMARK    6  A    between atoms: C_11  and  C_12
REMARK    7  A    between atoms: C_12  and  C_13
REMARK    8  A    between atoms: C_12  and  C_98
REMARK    9  A    between atoms: C_13  and  O_14
REMARK   10  A    between atoms: C_13  and  C_15
REMARK   11  A    between atoms: C_15  and  C_16
REMARK   12  A    between atoms: C_15  and  C_97
REMARK   13  A    between atoms: C_22  and  C_96
REMARK   14  A    between atoms: C_25  and  O_95
REMARK   15  A    between atoms: C_31  and  O_90
REMARK   16  A    between atoms: C_32  and  C_89
REMARK   17  A    between atoms: C_33  and  O_88
REMARK   18  A    between atoms: C_35  and  O_87
REMARK   19  A    between atoms: C_36  and  C_86
REMARK   20  A    between atoms: C_37  and  C_69
REMARK   21  A    between atoms: C_43  and  C_68
REMARK   22  A    between atoms: C_46  and  O_67
REMARK   23  A    between atoms: C_52  and  O_62
REMARK   24  A    between atoms: C_53  and  C_61
REMARK   25  A    between atoms: C_54  and  O_60
REMARK   26  A    between atoms: C_56  and  O_59
REMARK   27  A    between atoms: C_57  and  C_58
REMARK   28  A    between atoms: O_62  and  C_63
REMARK   29  A    between atoms: C_69  and  C_70
REMARK   30  A    between atoms: C_69  and  C_85
REMARK   31  A    between atoms: C_70  and  O_71
REMARK   32  A    between atoms: C_70  and  C_72
REMARK   33  A    between atoms: C_72  and  C_73
REMARK   34  A    between atoms: C_72  and  C_84
REMARK   35  A    between atoms: C_73  and  C_74
REMARK   36  A    between atoms: C_74  and  C_75
REMARK   37  A    between atoms: C_77  and  C_83
REMARK   38  A    between atoms: C_79  and  O_81
REMARK   39  A    between atoms: O_81  and  C_82
REMARK   40  A    between atoms: O_90  and  C_91
REMARK                            x       y       z     vdW  Elec       q    Type
REMARK                         _______ _______ _______ _____ _____    ______ ____
ROOT
ATOM      1  C   UNL     1     145.979 173.814 183.528  0.00  0.00    +0.113 C 
ATOM      2  O   UNL     1     145.901 172.369 183.392  0.00  0.00    -0.458 OA
ATOM      3  C   UNL     1     146.965 171.768 182.793  0.00  0.00    +0.332 C 
ATOM      4  O   UNL     1     147.947 172.334 182.326  0.00  0.00    -0.246 OA
ATOM      5  C   UNL     1     146.842 170.303 182.738  0.00  0.00    +0.023 C 
ATOM      6  C   UNL     1     146.095 169.570 183.577  0.00  0.00    -0.052 C 
ATOM      7  C   UNL     1     146.077 168.111 183.612  0.00  0.00    -0.054 C 
ATOM      8  C   UNL     1     147.216 167.391 183.535  0.00  0.00    -0.079 C 
ATOM      9  C   UNL     1     147.346 165.909 183.784  0.00  0.00    -0.008 C 
ATOM     10  C   UNL     1     148.696 165.476 184.386  0.00  0.00    +0.061 C 
ATOM     11  C   UNL     1     149.263 166.287 185.560  0.00  0.00    +0.003 C 
ATOM     12  C   UNL     1     148.543 166.220 186.920  0.00  0.00    +0.080 C 
ATOM     13  O   UNL     1     149.530 166.704 187.865  0.00  0.00    -0.369 OA
ATOM     14  C   UNL     1     149.033 167.288 189.079  0.00  0.00    +0.065 C 
ATOM     15  C   UNL     1     148.386 166.219 189.985  0.00  0.00    +0.000 C 
ATOM     16  C   UNL     1     147.978 166.749 191.376  0.00  0.00    +0.066 C 
ATOM     17  C   UNL     1     147.270 165.623 192.192  0.00  0.00    +0.009 C 
ATOM     18  C   UNL     1     145.844 166.022 192.654  0.00  0.00    +0.063 C 
ATOM     19  C   UNL     1     144.854 166.208 191.483  0.00  0.00    -0.000 C 
ATOM     20  C   UNL     1     143.406 166.377 191.989  0.00  0.00    +0.064 C 
ATOM     21  C   UNL     1     142.310 166.381 190.878  0.00  0.00    +0.020 C 
ATOM     22  C   UNL     1     142.509 167.490 189.797  0.00  0.00    +0.113 C 
ATOM     23  O   UNL     1     142.469 168.769 190.484  0.00  0.00    -0.458 OA
ATOM     24  C   UNL     1     143.447 169.658 190.167  0.00  0.00    +0.332 C 
ATOM     25  O   UNL     1     144.280 169.530 189.285  0.00  0.00    -0.246 OA
ATOM     26  C   UNL     1     143.322 170.845 191.044  0.00  0.00    +0.023 C 
ATOM     27  C   UNL     1     144.214 171.840 190.929  0.00  0.00    -0.052 C 
ATOM     28  C   UNL     1     144.215 173.083 191.691  0.00  0.00    -0.054 C 
ATOM     29  C   UNL     1     143.116 173.862 191.765  0.00  0.00    -0.079 C 
ATOM     30  C   UNL     1     142.979 175.184 192.470  0.00  0.00    -0.008 C 
ATOM     31  C   UNL     1     142.956 176.420 191.539  0.00  0.00    +0.061 C 
ATOM     32  C   UNL     1     141.583 176.648 190.874  0.00  0.00    +0.003 C 
ATOM     33  C   UNL     1     141.465 178.015 190.163  0.00  0.00    +0.080 C 
ATOM     34  O   UNL     1     142.080 177.993 188.864  0.00  0.00    -0.369 OA
ATOM     35  C   UNL     1     141.206 177.781 187.733  0.00  0.00    +0.065 C 
ATOM     36  C   UNL     1     142.104 177.903 186.489  0.00  0.00    +0.000 C 
ATOM     37  C   UNL     1     141.498 177.649 185.088  0.00  0.00    +0.066 C 
ATOM     38  C   UNL     1     140.977 176.188 184.926  0.00  0.00    +0.009 C 
ATOM     39  C   UNL     1     141.443 175.494 183.615  0.00  0.00    +0.063 C 
ATOM     40  C   UNL     1     142.947 175.633 183.328  0.00  0.00    -0.000 C 
ATOM     41  C   UNL     1     143.536 174.393 182.626  0.00  0.00    +0.064 C 
ATOM     42  C   UNL     1     145.078 174.529 182.459  0.00  0.00    +0.020 C 
ATOM     43  C   UNL     1     140.058 178.801 187.721  0.00  0.00    -0.008 C 
ATOM     44  C   UNL     1     139.378 178.863 189.048  0.00  0.00    -0.083 C 
ATOM     45  C   UNL     1     140.035 178.501 190.153  0.00  0.00    -0.059 C 
ATOM     46  C   UNL     1     148.136 168.486 188.722  0.00  0.00    -0.008 C 
ATOM     47  C   UNL     1     147.072 168.076 187.759  0.00  0.00    -0.083 C 
ATOM     48  C   UNL     1     147.262 167.017 186.961  0.00  0.00    -0.059 C 
ATOM     49  H   UNL     1     147.002 174.131 183.275  0.00  0.00    +0.074 HD
ATOM     50  H   UNL     1     147.491 169.838 182.002  0.00  0.00    +0.069 HD
ATOM     51  H   UNL     1     145.475 170.047 184.333  0.00  0.00    +0.062 HD
ATOM     52  H   UNL     1     148.156 167.909 183.352  0.00  0.00    +0.058 HD
ATOM     53  H   UNL     1     146.537 165.529 184.419  0.00  0.00    +0.033 HD
ATOM     54  H   UNL     1     147.225 165.389 182.822  0.00  0.00    +0.033 HD
ATOM     55  H   UNL     1     149.434 165.532 183.575  0.00  0.00    +0.060 HD
ATOM     56  H   UNL     1     149.399 167.337 185.271  0.00  0.00    +0.032 HD
ATOM     57  H   UNL     1     150.286 165.917 185.727  0.00  0.00    +0.032 HD
ATOM     58  H   UNL     1     148.332 165.178 187.185  0.00  0.00    +0.064 HD
ATOM     59  H   UNL     1     149.918 167.680 189.594  0.00  0.00    +0.060 HD
ATOM     60  H   UNL     1     149.117 165.406 190.108  0.00  0.00    +0.032 HD
ATOM     61  H   UNL     1     147.516 165.770 189.492  0.00  0.00    +0.032 HD
ATOM     62  H   UNL     1     147.297 167.595 191.233  0.00  0.00    +0.060 HD
ATOM     63  H   UNL     1     147.138 164.746 191.542  0.00  0.00    +0.035 HD
ATOM     64  H   UNL     1     145.458 165.229 193.306  0.00  0.00    +0.060 HD
ATOM     65  H   UNL     1     145.136 167.107 190.923  0.00  0.00    +0.032 HD
ATOM     66  H   UNL     1     144.919 165.344 190.812  0.00  0.00    +0.032 HD
ATOM     67  H   UNL     1     143.178 165.554 192.678  0.00  0.00    +0.060 HD
ATOM     68  H   UNL     1     141.369 166.595 191.400  0.00  0.00    +0.036 HD
ATOM     69  H   UNL     1     143.496 167.322 189.352  0.00  0.00    +0.074 HD
ATOM     70  H   UNL     1     142.509 170.865 191.757  0.00  0.00    +0.069 HD
ATOM     71  H   UNL     1     145.029 171.744 190.209  0.00  0.00    +0.062 HD
ATOM     72  H   UNL     1     142.200 173.525 191.283  0.00  0.00    +0.058 HD
ATOM     73  H   UNL     1     142.058 175.162 193.071  0.00  0.00    +0.033 HD
ATOM     74  H   UNL     1     143.771 175.307 193.217  0.00  0.00    +0.033 HD
ATOM     75  H   UNL     1     143.732 176.345 190.769  0.00  0.00    +0.060 HD
ATOM     76  H   UNL     1     140.822 176.594 191.665  0.00  0.00    +0.032 HD
ATOM     77  H   UNL     1     141.382 175.835 190.167  0.00  0.00    +0.032 HD
ATOM     78  H   UNL     1     142.024 178.769 190.729  0.00  0.00    +0.064 HD
ATOM     79  H   UNL     1     140.810 176.763 187.810  0.00  0.00    +0.060 HD
ATOM     80  H   UNL     1     142.953 177.215 186.620  0.00  0.00    +0.032 HD
ATOM     81  H   UNL     1     142.562 178.899 186.503  0.00  0.00    +0.032 HD
ATOM     82  H   UNL     1     142.322 177.805 184.386  0.00  0.00    +0.060 HD
ATOM     83  H   UNL     1     141.421 175.589 185.729  0.00  0.00    +0.035 HD
ATOM     84  H   UNL     1     141.192 174.430 183.717  0.00  0.00    +0.060 HD
ATOM     85  H   UNL     1     143.105 176.503 182.676  0.00  0.00    +0.032 HD
ATOM     86  H   UNL     1     143.484 175.825 184.252  0.00  0.00    +0.032 HD
ATOM     87  H   UNL     1     143.299 173.480 183.180  0.00  0.00    +0.060 HD
ATOM     88  H   UNL     1     145.324 175.600 182.511  0.00  0.00    +0.036 HD
ATOM     89  H   UNL     1     139.316 178.536 186.961  0.00  0.00    +0.033 HD
ATOM     90  H   UNL     1     140.431 179.806 187.490  0.00  0.00    +0.033 HD
ATOM     91  H   UNL     1     138.364 179.247 189.100  0.00  0.00    +0.057 HD
ATOM     92  H   UNL     1     139.538 178.587 191.117  0.00  0.00    +0.059 HD
ATOM     93  H   UNL     1     148.737 169.267 188.239  0.00  0.00    +0.033 HD
ATOM     94  H   UNL     1     147.690 168.932 189.613  0.00  0.00    +0.033 HD
ATOM     95  H   UNL     1     146.142 168.637 187.730  0.00  0.00    +0.057 HD
ATOM     96  H   UNL     1     146.449 166.703 186.315  0.00  0.00    +0.059 HD
ENDROOT
BRANCH  28  97
ATOM     97  C   UNL     1     145.562 173.433 192.268  0.00  0.00    -0.040 C 
ATOM     98  H   UNL     1     145.563 173.315 193.358  0.00  0.00    +0.028 HD
ATOM     99  H   UNL     1     145.810 174.475 192.038  0.00  0.00    +0.028 HD
ATOM    100  H   UNL     1     146.372 172.806 191.889  0.00  0.00    +0.028 HD
ENDBRANCH  28  97
BRANCH  21 101
ATOM    101  C   UNL     1     142.195 164.983 190.259  0.00  0.00    -0.057 C 
ATOM    102  H   UNL     1     142.361 165.005 189.177  0.00  0.00    +0.023 HD
ATOM    103  H   UNL     1     141.207 164.549 190.440  0.00  0.00    +0.023 HD
ATOM    104  H   UNL     1     142.924 164.295 190.701  0.00  0.00    +0.023 HD
ENDBRANCH  21 101
BRANCH  42 105
ATOM    105  C   UNL     1     145.528 174.085 181.047  0.00  0.00    -0.057 C 
ATOM    106  H   UNL     1     146.473 173.532 181.089  0.00  0.00    +0.023 HD
ATOM    107  H   UNL     1     144.776 173.450 180.565  0.00  0.00    +0.023 HD
ATOM    108  H   UNL     1     145.708 174.951 180.399  0.00  0.00    +0.023 HD
ENDBRANCH  42 105
BRANCH  17 109
ATOM    109  C   UNL     1     148.093 165.139 193.394  0.00  0.00    -0.058 C 
ATOM    110  H   UNL     1     149.090 165.591 193.420  0.00  0.00    +0.023 HD
ATOM    111  H   UNL     1     147.590 165.398 194.333  0.00  0.00    +0.023 HD
ATOM    112  H   UNL     1     148.207 164.050 193.376  0.00  0.00    +0.023 HD
ENDBRANCH  17 109
BRANCH  38 113
ATOM    113  C   UNL     1     139.449 176.069 185.058  0.00  0.00    -0.058 C 
ATOM    114  H   UNL     1     139.142 175.104 185.477  0.00  0.00    +0.023 HD
ATOM    115  H   UNL     1     138.955 176.187 184.089  0.00  0.00    +0.023 HD
ATOM    116  H   UNL     1     139.057 176.847 185.723  0.00  0.00    +0.023 HD
ENDBRANCH  38 113
BRANCH   7 117
ATOM    117  C   UNL     1     144.716 167.521 183.849  0.00  0.00    -0.040 C 
ATOM    118  H   UNL     1     143.933 168.188 183.471  0.00  0.00    +0.028 HD
ATOM    119  H   UNL     1     144.553 167.363 184.917  0.00  0.00    +0.028 HD
ATOM    120  H   UNL     1     144.579 166.564 183.339  0.00  0.00    +0.028 HD
ENDBRANCH   7 117
BRANCH   1 121
ATOM    121  C   UNL     1     145.864 174.189 185.052  0.00  0.00    +0.020 C 
ATOM    122  H   UNL     1     146.898 174.105 185.423  0.00  0.00    +0.036 HD
BRANCH 121 123
ATOM    123  C   UNL     1     145.453 175.668 185.170  0.00  0.00    -0.057 C 
ATOM    124  H   UNL     1     144.478 175.844 184.709  0.00  0.00    +0.023 HD
ATOM    125  H   UNL     1     146.174 176.338 184.698  0.00  0.00    +0.023 HD
ATOM    126  H   UNL     1     145.335 175.982 186.212  0.00  0.00    +0.023 HD
ENDBRANCH 121 123
BRANCH 121 127
ATOM    127  C   UNL     1     145.035 173.224 185.967  0.00  0.00    +0.064 C 
ATOM    128  H   UNL     1     145.143 172.213 185.585  0.00  0.00    +0.060 HD
BRANCH 127 129
ATOM    129  C   UNL     1     143.503 173.485 186.160  0.00  0.00    -0.017 C 
ATOM    130  H   UNL     1     143.277 174.477 185.747  0.00  0.00    +0.032 HD
BRANCH 129 131
ATOM    131  C   UNL     1     142.554 172.506 185.471  0.00  0.00    -0.060 C 
ATOM    132  H   UNL     1     141.669 172.320 186.085  0.00  0.00    +0.023 HD
ATOM    133  H   UNL     1     142.257 172.856 184.480  0.00  0.00    +0.023 HD
ATOM    134  H   UNL     1     143.035 171.527 185.340  0.00  0.00    +0.023 HD
ENDBRANCH 129 131
BRANCH 129 135
ATOM    135  C   UNL     1     143.129 173.517 187.672  0.00  0.00    -0.046 C 
ATOM    136  H   UNL     1     142.828 174.531 187.956  0.00  0.00    +0.027 HD
ATOM    137  H   UNL     1     144.025 173.304 188.261  0.00  0.00    +0.027 HD
BRANCH 135 138
ATOM    138  C   UNL     1     142.052 172.512 188.080  0.00  0.00    -0.026 C 
ATOM    139  H   UNL     1     142.522 171.661 188.580  0.00  0.00    +0.029 HD
ATOM    140  H   UNL     1     141.569 172.105 187.188  0.00  0.00    +0.029 HD
BRANCH 138 143
ATOM    141  C   UNL     1     139.258 172.501 190.556  0.00  0.00    +0.059 C 
ATOM    142  O   UNL     1     140.164 172.070 189.529  0.00  0.00    -0.373 OA
ATOM    143  C   UNL     1     140.980 173.119 189.002  0.00  0.00    +0.061 C 
ATOM    144  C   UNL     1     140.098 174.125 188.261  0.00  0.00    -0.000 C 
ATOM    145  C   UNL     1     138.709 174.277 188.893  0.00  0.00    +0.063 C 
ATOM    146  C   UNL     1     138.780 173.942 190.377  0.00  0.00    -0.000 C 
ATOM    147  H   UNL     1     138.387 171.839 190.472  0.00  0.00    +0.059 HD
ATOM    148  H   UNL     1     141.476 173.613 189.845  0.00  0.00    +0.060 HD
ATOM    149  H   UNL     1     140.615 175.087 188.213  0.00  0.00    +0.032 HD
ATOM    150  H   UNL     1     139.947 173.815 187.220  0.00  0.00    +0.032 HD
ATOM    151  H   UNL     1     138.017 173.590 188.388  0.00  0.00    +0.060 HD
ATOM    152  H   UNL     1     139.457 174.653 190.869  0.00  0.00    +0.032 HD
ATOM    153  H   UNL     1     137.813 174.075 190.875  0.00  0.00    +0.032 HD
BRANCH 141 154
ATOM    154  C   UNL     1     139.880 172.282 191.931  0.00  0.00    -0.039 C 
ATOM    155  H   UNL     1     140.834 172.809 192.024  0.00  0.00    +0.025 HD
ATOM    156  H   UNL     1     139.211 172.633 192.724  0.00  0.00    +0.025 HD
ATOM    157  H   UNL     1     140.087 171.221 192.096  0.00  0.00    +0.025 HD
ENDBRANCH 141 154
BRANCH 145 158
ATOM    158  O   UNL     1     138.283 175.624 188.668  0.00  0.00    -0.380 OA
BRANCH 158 159
ATOM    159  C   UNL     1     137.031 175.934 189.266  0.00  0.00    +0.037 C 
ATOM    160  H   UNL     1     136.964 175.394 190.215  0.00  0.00    +0.052 HD
ATOM    161  H   UNL     1     136.206 175.602 188.629  0.00  0.00    +0.052 HD
ATOM    162  H   UNL     1     136.942 177.006 189.470  0.00  0.00    +0.052 HD
ENDBRANCH 158 159
ENDBRANCH 145 158
ENDBRANCH 138 143
ENDBRANCH 135 138
ENDBRANCH 129 135
ENDBRANCH 127 129
BRANCH 127 163
ATOM    163  O   UNL     1     145.573 173.183 187.295  0.00  0.00    -0.391 OA
ATOM    164  H   UNL     1     144.941 173.594 187.909  0.00  0.00    +0.210 HD
ENDBRANCH 127 163
ENDBRANCH 121 127
ENDBRANCH   1 121
BRANCH  41 165
ATOM    165  O   UNL     1     142.904 174.273 181.347  0.00  0.00    -0.391 OA
ATOM    166  H   UNL     1     143.592 174.154 180.661  0.00  0.00    +0.210 HD
ENDBRANCH  41 165
BRANCH  39 167
ATOM    167  O   UNL     1     140.738 175.958 182.466  0.00  0.00    -0.391 OA
ATOM    168  H   UNL     1     140.287 176.792 182.702  0.00  0.00    +0.210 HD
ENDBRANCH  39 167
BRANCH  31 169
ATOM    169  O   UNL     1     143.265 177.559 192.355  0.00  0.00    -0.391 OA
ATOM    170  H   UNL     1     142.783 178.318 191.984  0.00  0.00    +0.210 HD
ENDBRANCH  31 169
BRANCH  22 171
ATOM    171  C   UNL     1     141.446 167.477 188.641  0.00  0.00    +0.020 C 
ATOM    172  H   UNL     1     140.923 166.518 188.709  0.00  0.00    +0.036 HD
BRANCH 171 173
ATOM    173  C   UNL     1     140.418 168.600 188.797  0.00  0.00    -0.057 C 
ATOM    174  H   UNL     1     140.905 169.547 189.036  0.00  0.00    +0.023 HD
ATOM    175  H   UNL     1     139.698 168.383 189.592  0.00  0.00    +0.023 HD
ATOM    176  H   UNL     1     139.834 168.743 187.884  0.00  0.00    +0.023 HD
ENDBRANCH 171 173
BRANCH 171 177
ATOM    177  C   UNL     1     142.131 167.515 187.249  0.00  0.00    +0.064 C 
ATOM    178  H   UNL     1     142.056 168.531 186.846  0.00  0.00    +0.060 HD
BRANCH 177 179
ATOM    179  O   UNL     1     143.518 167.227 187.441  0.00  0.00    -0.391 OA
ATOM    180  H   UNL     1     143.981 168.094 187.459  0.00  0.00    +0.210 HD
ENDBRANCH 177 179
BRANCH 177 181
ATOM    181  C   UNL     1     141.571 166.562 186.155  0.00  0.00    -0.017 C 
ATOM    182  H   UNL     1     142.319 166.495 185.353  0.00  0.00    +0.032 HD
BRANCH 181 183
ATOM    183  C   UNL     1     141.418 165.149 186.746  0.00  0.00    -0.060 C 
ATOM    184  H   UNL     1     140.713 165.139 187.584  0.00  0.00    +0.023 HD
ATOM    185  H   UNL     1     141.063 164.435 185.997  0.00  0.00    +0.023 HD
ATOM    186  H   UNL     1     142.373 164.772 187.112  0.00  0.00    +0.023 HD
ENDBRANCH 181 183
BRANCH 181 187
ATOM    187  C   UNL     1     140.232 167.027 185.539  0.00  0.00    -0.046 C 
ATOM    188  H   UNL     1     139.439 166.996 186.295  0.00  0.00    +0.027 HD
ATOM    189  H   UNL     1     139.935 166.334 184.742  0.00  0.00    +0.027 HD
BRANCH 187 190
ATOM    190  C   UNL     1     140.301 168.463 184.991  0.00  0.00    -0.026 C 
ATOM    191  H   UNL     1     140.943 168.483 184.107  0.00  0.00    +0.029 HD
ATOM    192  H   UNL     1     140.777 169.109 185.738  0.00  0.00    +0.029 HD
BRANCH 190 193
ATOM    193  C   UNL     1     138.918 169.038 184.638  0.00  0.00    +0.061 C 
ATOM    194  O   UNL     1     138.991 170.093 183.674  0.00  0.00    -0.373 OA
ATOM    195  C   UNL     1     139.579 171.306 184.152  0.00  0.00    +0.059 C 
ATOM    196  C   UNL     1     138.807 171.855 185.350  0.00  0.00    -0.000 C 
ATOM    197  C   UNL     1     138.694 170.802 186.453  0.00  0.00    +0.063 C 
ATOM    198  C   UNL     1     138.139 169.502 185.870  0.00  0.00    -0.000 C 
ATOM    199  H   UNL     1     138.341 168.235 184.165  0.00  0.00    +0.060 HD
ATOM    200  H   UNL     1     140.624 171.120 184.424  0.00  0.00    +0.059 HD
ATOM    201  H   UNL     1     137.796 172.156 185.046  0.00  0.00    +0.032 HD
ATOM    202  H   UNL     1     139.296 172.760 185.727  0.00  0.00    +0.032 HD
ATOM    203  H   UNL     1     139.680 170.608 186.893  0.00  0.00    +0.060 HD
ATOM    204  H   UNL     1     137.091 169.673 185.586  0.00  0.00    +0.032 HD
ATOM    205  H   UNL     1     138.113 168.723 186.641  0.00  0.00    +0.032 HD
BRANCH 195 206
ATOM    206  C   UNL     1     139.568 172.302 182.997  0.00  0.00    -0.039 C 
ATOM    207  H   UNL     1     138.568 172.360 182.555  0.00  0.00    +0.025 HD
ATOM    208  H   UNL     1     140.279 172.011 182.218  0.00  0.00    +0.025 HD
ATOM    209  H   UNL     1     139.818 173.310 183.346  0.00  0.00    +0.025 HD
ENDBRANCH 195 206
BRANCH 197 210
ATOM    210  O   UNL     1     137.797 171.220 187.490  0.00  0.00    -0.380 OA
BRANCH 210 211
ATOM    211  C   UNL     1     136.996 170.168 188.014  0.00  0.00    +0.037 C 
ATOM    212  H   UNL     1     135.965 170.528 188.080  0.00  0.00    +0.052 HD
ATOM    213  H   UNL     1     137.324 169.891 189.020  0.00  0.00    +0.052 HD
ATOM    214  H   UNL     1     137.019 169.297 187.353  0.00  0.00    +0.052 HD
ENDBRANCH 210 211
ENDBRANCH 197 210
ENDBRANCH 190 193
ENDBRANCH 187 190
ENDBRANCH 181 187
ENDBRANCH 177 181
ENDBRANCH 171 177
ENDBRANCH  22 171
BRANCH  20 215
ATOM    215  O   UNL     1     143.350 167.571 192.783  0.00  0.00    -0.391 OA
ATOM    216  H   UNL     1     142.727 168.183 192.349  0.00  0.00    +0.210 HD
ENDBRANCH  20 215
BRANCH  18 217
ATOM    217  O   UNL     1     145.905 167.213 193.440  0.00  0.00    -0.391 OA
ATOM    218  H   UNL     1     145.776 167.961 192.821  0.00  0.00    +0.210 HD
ENDBRANCH  18 217
BRANCH  10 219
ATOM    219  O   UNL     1     148.605 164.096 184.751  0.00  0.00    -0.391 OA
ATOM    220  H   UNL     1     148.388 164.060 185.700  0.00  0.00    +0.210 HD
ENDBRANCH  10 219
BRANCH  37 221
ATOM    221  O   UNL     1     140.474 178.576 184.726  0.00  0.00    -0.379 OA
BRANCH 221 222
ATOM    222  C   UNL     1     140.815 179.435 183.645  0.00  0.00    +0.037 C 
ATOM    223  H   UNL     1     141.428 180.249 184.042  0.00  0.00    +0.052 HD
ATOM    224  H   UNL     1     141.402 178.906 182.891  0.00  0.00    +0.052 HD
ATOM    225  H   UNL     1     139.917 179.865 183.192  0.00  0.00    +0.052 HD
ENDBRANCH 221 222
ENDBRANCH  37 221
BRANCH  16 226
ATOM    226  O   UNL     1     149.184 167.198 192.014  0.00  0.00    -0.379 OA
BRANCH 226 227
ATOM    227  C   UNL     1     149.097 168.540 192.476  0.00  0.00    +0.037 C 
ATOM    228  H   UNL     1     150.064 168.909 192.830  0.00  0.00    +0.052 HD
ATOM    229  H   UNL     1     148.354 168.605 193.279  0.00  0.00    +0.052 HD
ATOM    230  H   UNL     1     148.769 169.172 191.645  0.00  0.00    +0.052 HD
ENDBRANCH 226 227
ENDBRANCH  16 226
TORSDOF 40
ENDMDL
MODEL 4
REMARK VINA RESULT:      -4.8      4.944     11.647
REMARK  Name = Swinholide A_conf1
REMARK  40 active torsions:
REMARK  status: ('A' for Active; 'I' for Inactive)
REMARK    1  A    between atoms: C_1  and  C_2
REMARK    2  A    between atoms: C_4  and  C_10
REMARK    3  A    between atoms: C_6  and  O_8
REMARK    4  A    between atoms: O_8  and  C_9
REMARK    5  A    between atoms: C_10  and  C_11
REMARK    6  A    between atoms: C_11  and  C_12
REMARK    7  A    between atoms: C_12  and  C_13
REMARK    8  A    between atoms: C_12  and  C_98
REMARK    9  A    between atoms: C_13  and  O_14
REMARK   10  A    between atoms: C_13  and  C_15
REMARK   11  A    between atoms: C_15  and  C_16
REMARK   12  A    between atoms: C_15  and  C_97
REMARK   13  A    between atoms: C_22  and  C_96
REMARK   14  A    between atoms: C_25  and  O_95
REMARK   15  A    between atoms: C_31  and  O_90
REMARK   16  A    between atoms: C_32  and  C_89
REMARK   17  A    between atoms: C_33  and  O_88
REMARK   18  A    between atoms: C_35  and  O_87
REMARK   19  A    between atoms: C_36  and  C_86
REMARK   20  A    between atoms: C_37  and  C_69
REMARK   21  A    between atoms: C_43  and  C_68
REMARK   22  A    between atoms: C_46  and  O_67
REMARK   23  A    between atoms: C_52  and  O_62
REMARK   24  A    between atoms: C_53  and  C_61
REMARK   25  A    between atoms: C_54  and  O_60
REMARK   26  A    between atoms: C_56  and  O_59
REMARK   27  A    between atoms: C_57  and  C_58
REMARK   28  A    between atoms: O_62  and  C_63
REMARK   29  A    between atoms: C_69  and  C_70
REMARK   30  A    between atoms: C_69  and  C_85
REMARK   31  A    between atoms: C_70  and  O_71
REMARK   32  A    between atoms: C_70  and  C_72
REMARK   33  A    between atoms: C_72  and  C_73
REMARK   34  A    between atoms: C_72  and  C_84
REMARK   35  A    between atoms: C_73  and  C_74
REMARK   36  A    between atoms: C_74  and  C_75
REMARK   37  A    between atoms: C_77  and  C_83
REMARK   38  A    between atoms: C_79  and  O_81
REMARK   39  A    between atoms: O_81  and  C_82
REMARK   40  A    between atoms: O_90  and  C_91
REMARK                            x       y       z     vdW  Elec       q    Type
REMARK                         _______ _______ _______ _____ _____    ______ ____
ROOT
ATOM      1  C   UNL     1     145.936 173.702 183.524  0.00  0.00    +0.113 C 
ATOM      2  O   UNL     1     145.868 172.254 183.407  0.00  0.00    -0.458 OA
ATOM      3  C   UNL     1     146.932 171.653 182.807  0.00  0.00    +0.332 C 
ATOM      4  O   UNL     1     147.906 172.221 182.325  0.00  0.00    -0.246 OA
ATOM      5  C   UNL     1     146.819 170.187 182.772  0.00  0.00    +0.023 C 
ATOM      6  C   UNL     1     146.085 169.460 183.626  0.00  0.00    -0.052 C 
ATOM      7  C   UNL     1     146.078 168.001 183.681  0.00  0.00    -0.054 C 
ATOM      8  C   UNL     1     147.221 167.289 183.603  0.00  0.00    -0.079 C 
ATOM      9  C   UNL     1     147.365 165.811 183.870  0.00  0.00    -0.008 C 
ATOM     10  C   UNL     1     148.724 165.396 184.467  0.00  0.00    +0.061 C 
ATOM     11  C   UNL     1     149.294 166.226 185.626  0.00  0.00    +0.003 C 
ATOM     12  C   UNL     1     148.586 166.171 186.992  0.00  0.00    +0.080 C 
ATOM     13  O   UNL     1     149.577 166.675 187.923  0.00  0.00    -0.369 OA
ATOM     14  C   UNL     1     149.085 167.271 189.134  0.00  0.00    +0.065 C 
ATOM     15  C   UNL     1     148.454 166.209 190.059  0.00  0.00    +0.000 C 
ATOM     16  C   UNL     1     148.053 166.754 191.446  0.00  0.00    +0.066 C 
ATOM     17  C   UNL     1     147.360 165.634 192.282  0.00  0.00    +0.009 C 
ATOM     18  C   UNL     1     145.935 166.027 192.751  0.00  0.00    +0.063 C 
ATOM     19  C   UNL     1     144.934 166.191 191.586  0.00  0.00    -0.000 C 
ATOM     20  C   UNL     1     143.489 166.356 192.101  0.00  0.00    +0.064 C 
ATOM     21  C   UNL     1     142.384 166.338 190.999  0.00  0.00    +0.020 C 
ATOM     22  C   UNL     1     142.566 167.434 189.903  0.00  0.00    +0.113 C 
ATOM     23  O   UNL     1     142.522 168.721 190.574  0.00  0.00    -0.458 OA
ATOM     24  C   UNL     1     143.491 169.614 190.237  0.00  0.00    +0.332 C 
ATOM     25  O   UNL     1     144.317 169.480 189.350  0.00  0.00    -0.246 OA
ATOM     26  C   UNL     1     143.364 170.810 191.100  0.00  0.00    +0.023 C 
ATOM     27  C   UNL     1     144.247 171.811 190.964  0.00  0.00    -0.052 C 
ATOM     28  C   UNL     1     144.244 173.063 191.710  0.00  0.00    -0.054 C 
ATOM     29  C   UNL     1     143.140 173.835 191.783  0.00  0.00    -0.079 C 
ATOM     30  C   UNL     1     142.999 175.165 192.472  0.00  0.00    -0.008 C 
ATOM     31  C   UNL     1     142.960 176.388 191.526  0.00  0.00    +0.061 C 
ATOM     32  C   UNL     1     141.579 176.598 190.870  0.00  0.00    +0.003 C 
ATOM     33  C   UNL     1     141.446 177.955 190.142  0.00  0.00    +0.080 C 
ATOM     34  O   UNL     1     142.050 177.920 188.838  0.00  0.00    -0.369 OA
ATOM     35  C   UNL     1     141.168 177.687 187.717  0.00  0.00    +0.065 C 
ATOM     36  C   UNL     1     142.055 177.799 186.464  0.00  0.00    +0.000 C 
ATOM     37  C   UNL     1     141.440 177.523 185.072  0.00  0.00    +0.066 C 
ATOM     38  C   UNL     1     140.928 176.056 184.933  0.00  0.00    +0.009 C 
ATOM     39  C   UNL     1     141.389 175.349 183.628  0.00  0.00    +0.063 C 
ATOM     40  C   UNL     1     142.889 175.495 183.326  0.00  0.00    -0.000 C 
ATOM     41  C   UNL     1     143.481 174.251 182.635  0.00  0.00    +0.064 C 
ATOM     42  C   UNL     1     145.022 174.396 182.453  0.00  0.00    +0.020 C 
ATOM     43  C   UNL     1     140.013 178.698 187.701  0.00  0.00    -0.008 C 
ATOM     44  C   UNL     1     139.343 178.773 189.033  0.00  0.00    -0.083 C 
ATOM     45  C   UNL     1     140.012 178.430 190.137  0.00  0.00    -0.059 C 
ATOM     46  C   UNL     1     148.177 168.458 188.768  0.00  0.00    -0.008 C 
ATOM     47  C   UNL     1     147.107 168.027 187.819  0.00  0.00    -0.083 C 
ATOM     48  C   UNL     1     147.298 166.960 187.033  0.00  0.00    -0.059 C 
ATOM     49  H   UNL     1     146.955 174.023 183.259  0.00  0.00    +0.074 HD
ATOM     50  H   UNL     1     147.465 169.718 182.037  0.00  0.00    +0.069 HD
ATOM     51  H   UNL     1     145.468 169.941 184.382  0.00  0.00    +0.062 HD
ATOM     52  H   UNL     1     148.157 167.811 183.406  0.00  0.00    +0.058 HD
ATOM     53  H   UNL     1     146.565 165.434 184.517  0.00  0.00    +0.033 HD
ATOM     54  H   UNL     1     147.240 165.278 182.917  0.00  0.00    +0.033 HD
ATOM     55  H   UNL     1     149.454 165.447 183.650  0.00  0.00    +0.060 HD
ATOM     56  H   UNL     1     149.420 167.273 185.322  0.00  0.00    +0.032 HD
ATOM     57  H   UNL     1     150.321 165.866 185.789  0.00  0.00    +0.032 HD
ATOM     58  H   UNL     1     148.384 165.131 187.273  0.00  0.00    +0.064 HD
ATOM     59  H   UNL     1     149.971 167.677 189.636  0.00  0.00    +0.060 HD
ATOM     60  H   UNL     1     149.191 165.403 190.186  0.00  0.00    +0.032 HD
ATOM     61  H   UNL     1     147.583 165.748 189.578  0.00  0.00    +0.032 HD
ATOM     62  H   UNL     1     147.365 167.593 191.298  0.00  0.00    +0.060 HD
ATOM     63  H   UNL     1     147.230 164.747 191.645  0.00  0.00    +0.035 HD
ATOM     64  H   UNL     1     145.560 165.240 193.417  0.00  0.00    +0.060 HD
ATOM     65  H   UNL     1     145.204 167.085 191.012  0.00  0.00    +0.032 HD
ATOM     66  H   UNL     1     145.000 165.319 190.925  0.00  0.00    +0.032 HD
ATOM     67  H   UNL     1     143.273 165.540 192.803  0.00  0.00    +0.060 HD
ATOM     68  H   UNL     1     141.446 166.551 191.527  0.00  0.00    +0.036 HD
ATOM     69  H   UNL     1     143.551 167.268 189.452  0.00  0.00    +0.074 HD
ATOM     70  H   UNL     1     142.557 170.834 191.819  0.00  0.00    +0.069 HD
ATOM     71  H   UNL     1     145.056 171.712 190.239  0.00  0.00    +0.062 HD
ATOM     72  H   UNL     1     142.224 173.485 191.313  0.00  0.00    +0.058 HD
ATOM     73  H   UNL     1     142.084 175.144 193.081  0.00  0.00    +0.033 HD
ATOM     74  H   UNL     1     143.797 175.303 193.211  0.00  0.00    +0.033 HD
ATOM     75  H   UNL     1     143.730 176.309 190.751  0.00  0.00    +0.060 HD
ATOM     76  H   UNL     1     140.825 176.549 191.667  0.00  0.00    +0.032 HD
ATOM     77  H   UNL     1     141.379 175.774 190.174  0.00  0.00    +0.032 HD
ATOM     78  H   UNL     1     142.003 178.720 190.693  0.00  0.00    +0.064 HD
ATOM     79  H   UNL     1     140.780 176.667 187.811  0.00  0.00    +0.060 HD
ATOM     80  H   UNL     1     142.910 177.119 186.597  0.00  0.00    +0.032 HD
ATOM     81  H   UNL     1     142.506 178.799 186.462  0.00  0.00    +0.032 HD
ATOM     82  H   UNL     1     142.257 177.676 184.360  0.00  0.00    +0.060 HD
ATOM     83  H   UNL     1     141.383 175.470 185.739  0.00  0.00    +0.035 HD
ATOM     84  H   UNL     1     141.146 174.284 183.745  0.00  0.00    +0.060 HD
ATOM     85  H   UNL     1     143.036 176.357 182.661  0.00  0.00    +0.032 HD
ATOM     86  H   UNL     1     143.433 175.703 184.243  0.00  0.00    +0.032 HD
ATOM     87  H   UNL     1     143.256 173.343 183.203  0.00  0.00    +0.060 HD
ATOM     88  H   UNL     1     145.260 175.469 182.490  0.00  0.00    +0.036 HD
ATOM     89  H   UNL     1     139.266 178.418 186.951  0.00  0.00    +0.033 HD
ATOM     90  H   UNL     1     140.376 179.703 187.455  0.00  0.00    +0.033 HD
ATOM     91  H   UNL     1     138.326 179.150 189.088  0.00  0.00    +0.057 HD
ATOM     92  H   UNL     1     139.522 178.525 191.104  0.00  0.00    +0.059 HD
ATOM     93  H   UNL     1     148.767 169.237 188.270  0.00  0.00    +0.033 HD
ATOM     94  H   UNL     1     147.734 168.912 189.657  0.00  0.00    +0.033 HD
ATOM     95  H   UNL     1     146.173 168.581 187.791  0.00  0.00    +0.057 HD
ATOM     96  H   UNL     1     146.483 166.631 186.399  0.00  0.00    +0.059 HD
ENDROOT
BRANCH  28  97
ATOM     97  C   UNL     1     145.594 173.431 192.272  0.00  0.00    -0.040 C 
ATOM     98  H   UNL     1     145.553 173.515 193.364  0.00  0.00    +0.028 HD
ATOM     99  H   UNL     1     145.919 174.396 191.867  0.00  0.00    +0.028 HD
ATOM    100  H   UNL     1     146.371 172.696 192.047  0.00  0.00    +0.028 HD
ENDBRANCH  28  97
BRANCH  21 101
ATOM    101  C   UNL     1     142.275 164.931 190.400  0.00  0.00    -0.057 C 
ATOM    102  H   UNL     1     143.251 164.550 190.081  0.00  0.00    +0.023 HD
ATOM    103  H   UNL     1     141.609 164.920 189.531  0.00  0.00    +0.023 HD
ATOM    104  H   UNL     1     141.855 164.225 191.125  0.00  0.00    +0.023 HD
ENDBRANCH  21 101
BRANCH  42 105
ATOM    105  C   UNL     1     145.463 173.937 181.043  0.00  0.00    -0.057 C 
ATOM    106  H   UNL     1     145.019 172.969 180.787  0.00  0.00    +0.023 HD
ATOM    107  H   UNL     1     145.178 174.663 180.274  0.00  0.00    +0.023 HD
ATOM    108  H   UNL     1     146.549 173.799 180.996  0.00  0.00    +0.023 HD
ENDBRANCH  42 105
BRANCH  17 109
ATOM    109  C   UNL     1     148.197 165.172 193.483  0.00  0.00    -0.058 C 
ATOM    110  H   UNL     1     147.933 165.707 194.401  0.00  0.00    +0.023 HD
ATOM    111  H   UNL     1     148.042 164.103 193.670  0.00  0.00    +0.023 HD
ATOM    112  H   UNL     1     149.266 165.316 193.293  0.00  0.00    +0.023 HD
ENDBRANCH  17 109
BRANCH  38 113
ATOM    113  C   UNL     1     139.402 175.927 185.079  0.00  0.00    -0.058 C 
ATOM    114  H   UNL     1     138.883 176.865 184.848  0.00  0.00    +0.023 HD
ATOM    115  H   UNL     1     139.122 175.629 186.093  0.00  0.00    +0.023 HD
ATOM    116  H   UNL     1     139.011 175.167 184.392  0.00  0.00    +0.023 HD
ENDBRANCH  38 113
BRANCH   7 117
ATOM    117  C   UNL     1     144.723 167.403 183.937  0.00  0.00    -0.040 C 
ATOM    118  H   UNL     1     144.726 166.330 183.718  0.00  0.00    +0.028 HD
ATOM    119  H   UNL     1     143.973 167.886 183.308  0.00  0.00    +0.028 HD
ATOM    120  H   UNL     1     144.410 167.505 184.979  0.00  0.00    +0.028 HD
ENDBRANCH   7 117
BRANCH   1 121
ATOM    121  C   UNL     1     145.831 174.095 185.044  0.00  0.00    +0.020 C 
ATOM    122  H   UNL     1     146.873 174.055 185.400  0.00  0.00    +0.036 HD
BRANCH 121 123
ATOM    123  C   UNL     1     145.368 175.561 185.146  0.00  0.00    -0.057 C 
ATOM    124  H   UNL     1     144.343 175.625 185.518  0.00  0.00    +0.023 HD
ATOM    125  H   UNL     1     145.412 176.078 184.186  0.00  0.00    +0.023 HD
ATOM    126  H   UNL     1     145.967 176.133 185.862  0.00  0.00    +0.023 HD
ENDBRANCH 121 123
BRANCH 121 127
ATOM    127  C   UNL     1     145.051 173.115 185.986  0.00  0.00    +0.064 C 
ATOM    128  H   UNL     1     145.130 172.112 185.576  0.00  0.00    +0.060 HD
BRANCH 127 129
ATOM    129  C   UNL     1     143.535 173.380 186.276  0.00  0.00    -0.017 C 
ATOM    130  H   UNL     1     143.297 174.392 185.919  0.00  0.00    +0.032 HD
BRANCH 129 131
ATOM    131  C   UNL     1     142.539 172.440 185.599  0.00  0.00    -0.060 C 
ATOM    132  H   UNL     1     142.959 171.436 185.492  0.00  0.00    +0.023 HD
ATOM    133  H   UNL     1     141.590 172.395 186.139  0.00  0.00    +0.023 HD
ATOM    134  H   UNL     1     142.317 172.780 184.578  0.00  0.00    +0.023 HD
ENDBRANCH 129 131
BRANCH 129 135
ATOM    135  C   UNL     1     143.247 173.349 187.806  0.00  0.00    -0.046 C 
ATOM    136  H   UNL     1     144.092 173.786 188.349  0.00  0.00    +0.027 HD
ATOM    137  H   UNL     1     143.198 172.308 188.135  0.00  0.00    +0.027 HD
BRANCH 135 138
ATOM    138  C   UNL     1     141.943 174.031 188.220  0.00  0.00    -0.026 C 
ATOM    139  H   UNL     1     141.698 174.812 187.494  0.00  0.00    +0.029 HD
ATOM    140  H   UNL     1     142.080 174.544 189.175  0.00  0.00    +0.029 HD
BRANCH 138 143
ATOM    141  C   UNL     1     138.509 172.715 187.578  0.00  0.00    +0.059 C 
ATOM    142  O   UNL     1     139.613 173.624 187.702  0.00  0.00    -0.373 OA
ATOM    143  C   UNL     1     140.761 173.053 188.337  0.00  0.00    +0.061 C 
ATOM    144  C   UNL     1     140.430 172.736 189.796  0.00  0.00    -0.000 C 
ATOM    145  C   UNL     1     138.970 172.312 189.995  0.00  0.00    +0.063 C 
ATOM    146  C   UNL     1     138.434 171.692 188.712  0.00  0.00    -0.000 C 
ATOM    147  H   UNL     1     137.610 173.342 187.623  0.00  0.00    +0.059 HD
ATOM    148  H   UNL     1     141.012 172.129 187.806  0.00  0.00    +0.060 HD
ATOM    149  H   UNL     1     141.115 171.966 190.159  0.00  0.00    +0.032 HD
ATOM    150  H   UNL     1     140.602 173.613 190.432  0.00  0.00    +0.032 HD
ATOM    151  H   UNL     1     138.379 173.201 190.256  0.00  0.00    +0.060 HD
ATOM    152  H   UNL     1     139.021 170.793 188.481  0.00  0.00    +0.032 HD
ATOM    153  H   UNL     1     137.402 171.341 188.825  0.00  0.00    +0.032 HD
BRANCH 141 154
ATOM    154  C   UNL     1     138.538 172.037 186.212  0.00  0.00    -0.039 C 
ATOM    155  H   UNL     1     138.103 172.679 185.441  0.00  0.00    +0.025 HD
ATOM    156  H   UNL     1     139.564 171.789 185.920  0.00  0.00    +0.025 HD
ATOM    157  H   UNL     1     137.949 171.116 186.226  0.00  0.00    +0.025 HD
ENDBRANCH 141 154
BRANCH 145 158
ATOM    158  O   UNL     1     138.939 171.389 191.089  0.00  0.00    -0.380 OA
BRANCH 158 159
ATOM    159  C   UNL     1     138.085 170.274 190.870  0.00  0.00    +0.037 C 
ATOM    160  H   UNL     1     137.916 170.180 189.794  0.00  0.00    +0.052 HD
ATOM    161  H   UNL     1     137.115 170.430 191.352  0.00  0.00    +0.052 HD
ATOM    162  H   UNL     1     138.541 169.347 191.233  0.00  0.00    +0.052 HD
ENDBRANCH 158 159
ENDBRANCH 145 158
ENDBRANCH 138 143
ENDBRANCH 135 138
ENDBRANCH 129 135
ENDBRANCH 127 129
BRANCH 127 163
ATOM    163  O   UNL     1     145.667 173.042 187.278  0.00  0.00    -0.391 OA
ATOM    164  H   UNL     1     144.976 173.031 187.962  0.00  0.00    +0.210 HD
ENDBRANCH 127 163
ENDBRANCH 121 127
ENDBRANCH   1 121
BRANCH  41 165
ATOM    165  O   UNL     1     142.840 174.110 181.363  0.00  0.00    -0.391 OA
ATOM    166  H   UNL     1     142.255 174.880 181.213  0.00  0.00    +0.210 HD
ENDBRANCH  41 165
BRANCH  39 167
ATOM    167  O   UNL     1     140.670 175.793 182.478  0.00  0.00    -0.391 OA
ATOM    168  H   UNL     1     141.203 175.581 181.687  0.00  0.00    +0.210 HD
ENDBRANCH  39 167
BRANCH  31 169
ATOM    169  O   UNL     1     143.266 177.540 192.325  0.00  0.00    -0.391 OA
ATOM    170  H   UNL     1     142.437 178.033 192.451  0.00  0.00    +0.210 HD
ENDBRANCH  31 169
BRANCH  22 171
ATOM    171  C   UNL     1     141.494 167.398 188.756  0.00  0.00    +0.020 C 
ATOM    172  H   UNL     1     140.823 166.562 188.982  0.00  0.00    +0.036 HD
BRANCH 171 173
ATOM    173  C   UNL     1     140.665 168.684 188.707  0.00  0.00    -0.057 C 
ATOM    174  H   UNL     1     139.977 168.675 187.861  0.00  0.00    +0.023 HD
ATOM    175  H   UNL     1     141.299 169.571 188.615  0.00  0.00    +0.023 HD
ATOM    176  H   UNL     1     140.076 168.820 189.618  0.00  0.00    +0.023 HD
ENDBRANCH 171 173
BRANCH 171 177
ATOM    177  C   UNL     1     142.150 167.086 187.385  0.00  0.00    +0.064 C 
ATOM    178  H   UNL     1     141.458 167.377 186.588  0.00  0.00    +0.060 HD
BRANCH 177 179
ATOM    179  O   UNL     1     143.317 167.902 187.267  0.00  0.00    -0.391 OA
ATOM    180  H   UNL     1     143.293 168.290 186.364  0.00  0.00    +0.210 HD
ENDBRANCH 177 179
BRANCH 177 181
ATOM    181  C   UNL     1     142.547 165.608 187.107  0.00  0.00    -0.017 C 
ATOM    182  H   UNL     1     142.276 165.015 187.991  0.00  0.00    +0.032 HD
BRANCH 181 183
ATOM    183  C   UNL     1     141.709 165.071 185.932  0.00  0.00    -0.060 C 
ATOM    184  H   UNL     1     140.888 165.751 185.682  0.00  0.00    +0.023 HD
ATOM    185  H   UNL     1     142.317 164.928 185.035  0.00  0.00    +0.023 HD
ATOM    186  H   UNL     1     141.273 164.101 186.174  0.00  0.00    +0.023 HD
ENDBRANCH 181 183
BRANCH 181 187
ATOM    187  C   UNL     1     144.052 165.402 186.820  0.00  0.00    -0.046 C 
ATOM    188  H   UNL     1     144.603 166.328 187.015  0.00  0.00    +0.027 HD
ATOM    189  H   UNL     1     144.194 165.168 185.758  0.00  0.00    +0.027 HD
BRANCH 187 190
ATOM    190  C   UNL     1     144.672 164.296 187.692  0.00  0.00    -0.026 C 
ATOM    191  H   UNL     1     144.236 164.335 188.693  0.00  0.00    +0.029 HD
ATOM    192  H   UNL     1     145.744 164.491 187.810  0.00  0.00    +0.029 HD
BRANCH 190 193
ATOM    193  C   UNL     1     144.480 162.887 187.101  0.00  0.00    +0.061 C 
ATOM    194  O   UNL     1     143.417 162.167 187.731  0.00  0.00    -0.373 OA
ATOM    195  C   UNL     1     143.675 161.768 189.080  0.00  0.00    +0.059 C 
ATOM    196  C   UNL     1     144.917 160.882 189.161  0.00  0.00    -0.000 C 
ATOM    197  C   UNL     1     146.124 161.579 188.531  0.00  0.00    +0.063 C 
ATOM    198  C   UNL     1     145.765 162.058 187.123  0.00  0.00    -0.000 C 
ATOM    199  H   UNL     1     144.184 163.010 186.053  0.00  0.00    +0.060 HD
ATOM    200  H   UNL     1     143.800 162.659 189.704  0.00  0.00    +0.059 HD
ATOM    201  H   UNL     1     144.744 159.934 188.635  0.00  0.00    +0.032 HD
ATOM    202  H   UNL     1     145.122 160.622 190.205  0.00  0.00    +0.032 HD
ATOM    203  H   UNL     1     146.424 162.440 189.139  0.00  0.00    +0.060 HD
ATOM    204  H   UNL     1     145.631 161.174 186.484  0.00  0.00    +0.032 HD
ATOM    205  H   UNL     1     146.605 162.613 186.688  0.00  0.00    +0.032 HD
BRANCH 195 206
ATOM    206  C   UNL     1     142.442 161.019 189.576  0.00  0.00    -0.039 C 
ATOM    207  H   UNL     1     142.469 159.977 189.240  0.00  0.00    +0.025 HD
ATOM    208  H   UNL     1     141.523 161.483 189.205  0.00  0.00    +0.025 HD
ATOM    209  H   UNL     1     142.411 160.998 190.670  0.00  0.00    +0.025 HD
ENDBRANCH 195 206
BRANCH 197 210
ATOM    210  O   UNL     1     147.239 160.687 188.405  0.00  0.00    -0.380 OA
BRANCH 210 211
ATOM    211  C   UNL     1     147.261 159.653 189.382  0.00  0.00    +0.037 C 
ATOM    212  H   UNL     1     147.404 158.701 188.862  0.00  0.00    +0.052 HD
ATOM    213  H   UNL     1     146.312 159.606 189.922  0.00  0.00    +0.052 HD
ATOM    214  H   UNL     1     148.090 159.797 190.081  0.00  0.00    +0.052 HD
ENDBRANCH 210 211
ENDBRANCH 197 210
ENDBRANCH 190 193
ENDBRANCH 187 190
ENDBRANCH 181 187
ENDBRANCH 177 181
ENDBRANCH 171 177
ENDBRANCH  22 171
BRANCH  20 215
ATOM    215  O   UNL     1     143.430 167.560 192.880  0.00  0.00    -0.391 OA
ATOM    216  H   UNL     1     143.495 168.312 192.264  0.00  0.00    +0.210 HD
ENDBRANCH  20 215
BRANCH  18 217
ATOM    217  O   UNL     1     145.994 167.230 193.521  0.00  0.00    -0.391 OA
ATOM    218  H   UNL     1     146.787 167.716 193.216  0.00  0.00    +0.210 HD
ENDBRANCH  18 217
BRANCH  10 219
ATOM    219  O   UNL     1     148.646 164.020 184.850  0.00  0.00    -0.391 OA
ATOM    220  H   UNL     1     148.501 163.500 184.039  0.00  0.00    +0.210 HD
ENDBRANCH  10 219
BRANCH  37 221
ATOM    221  O   UNL     1     140.406 178.437 184.706  0.00  0.00    -0.379 OA
BRANCH 221 222
ATOM    222  C   UNL     1     140.694 179.219 183.554  0.00  0.00    +0.037 C 
ATOM    223  H   UNL     1     140.687 180.272 183.851  0.00  0.00    +0.052 HD
ATOM    224  H   UNL     1     141.684 178.986 183.157  0.00  0.00    +0.052 HD
ATOM    225  H   UNL     1     139.932 179.071 182.783  0.00  0.00    +0.052 HD
ENDBRANCH 221 222
ENDBRANCH  37 221
BRANCH  16 226
ATOM    226  O   UNL     1     149.260 167.220 192.068  0.00  0.00    -0.379 OA
BRANCH 226 227
ATOM    227  C   UNL     1     149.189 168.586 192.457  0.00  0.00    +0.037 C 
ATOM    228  H   UNL     1     148.682 169.195 191.702  0.00  0.00    +0.052 HD
ATOM    229  H   UNL     1     150.200 168.971 192.633  0.00  0.00    +0.052 HD
ATOM    230  H   UNL     1     148.623 168.651 193.392  0.00  0.00    +0.052 HD
ENDBRANCH 226 227
ENDBRANCH  16 226
TORSDOF 40
ENDMDL
MODEL 5
REMARK VINA RESULT:      -4.6      5.407     11.896
REMARK  Name = Swinholide A_conf1
REMARK  40 active torsions:
REMARK  status: ('A' for Active; 'I' for Inactive)
REMARK    1  A    between atoms: C_1  and  C_2
REMARK    2  A    between atoms: C_4  and  C_10
REMARK    3  A    between atoms: C_6  and  O_8
REMARK    4  A    between atoms: O_8  and  C_9
REMARK    5  A    between atoms: C_10  and  C_11
REMARK    6  A    between atoms: C_11  and  C_12
REMARK    7  A    between atoms: C_12  and  C_13
REMARK    8  A    between atoms: C_12  and  C_98
REMARK    9  A    between atoms: C_13  and  O_14
REMARK   10  A    between atoms: C_13  and  C_15
REMARK   11  A    between atoms: C_15  and  C_16
REMARK   12  A    between atoms: C_15  and  C_97
REMARK   13  A    between atoms: C_22  and  C_96
REMARK   14  A    between atoms: C_25  and  O_95
REMARK   15  A    between atoms: C_31  and  O_90
REMARK   16  A    between atoms: C_32  and  C_89
REMARK   17  A    between atoms: C_33  and  O_88
REMARK   18  A    between atoms: C_35  and  O_87
REMARK   19  A    between atoms: C_36  and  C_86
REMARK   20  A    between atoms: C_37  and  C_69
REMARK   21  A    between atoms: C_43  and  C_68
REMARK   22  A    between atoms: C_46  and  O_67
REMARK   23  A    between atoms: C_52  and  O_62
REMARK   24  A    between atoms: C_53  and  C_61
REMARK   25  A    between atoms: C_54  and  O_60
REMARK   26  A    between atoms: C_56  and  O_59
REMARK   27  A    between atoms: C_57  and  C_58
REMARK   28  A    between atoms: O_62  and  C_63
REMARK   29  A    between atoms: C_69  and  C_70
REMARK   30  A    between atoms: C_69  and  C_85
REMARK   31  A    between atoms: C_70  and  O_71
REMARK   32  A    between atoms: C_70  and  C_72
REMARK   33  A    between atoms: C_72  and  C_73
REMARK   34  A    between atoms: C_72  and  C_84
REMARK   35  A    between atoms: C_73  and  C_74
REMARK   36  A    between atoms: C_74  and  C_75
REMARK   37  A    between atoms: C_77  and  C_83
REMARK   38  A    between atoms: C_79  and  O_81
REMARK   39  A    between atoms: O_81  and  C_82
REMARK   40  A    between atoms: O_90  and  C_91
REMARK                            x       y       z     vdW  Elec       q    Type
REMARK                         _______ _______ _______ _____ _____    ______ ____
ROOT
ATOM      1  C   UNL     1     146.001 173.903 183.558  0.00  0.00    +0.113 C 
ATOM      2  O   UNL     1     145.917 172.459 183.407  0.00  0.00    -0.458 OA
ATOM      3  C   UNL     1     146.982 171.860 182.807  0.00  0.00    +0.332 C 
ATOM      4  O   UNL     1     147.968 172.427 182.351  0.00  0.00    -0.246 OA
ATOM      5  C   UNL     1     146.852 170.396 182.737  0.00  0.00    +0.023 C 
ATOM      6  C   UNL     1     146.099 169.658 183.565  0.00  0.00    -0.052 C 
ATOM      7  C   UNL     1     146.075 168.199 183.586  0.00  0.00    -0.054 C 
ATOM      8  C   UNL     1     147.210 167.475 183.507  0.00  0.00    -0.079 C 
ATOM      9  C   UNL     1     147.333 165.990 183.742  0.00  0.00    -0.008 C 
ATOM     10  C   UNL     1     148.679 165.545 184.346  0.00  0.00    +0.061 C 
ATOM     11  C   UNL     1     149.245 166.342 185.530  0.00  0.00    +0.003 C 
ATOM     12  C   UNL     1     148.518 166.264 186.886  0.00  0.00    +0.080 C 
ATOM     13  O   UNL     1     149.503 166.735 187.840  0.00  0.00    -0.369 OA
ATOM     14  C   UNL     1     149.003 167.309 189.058  0.00  0.00    +0.065 C 
ATOM     15  C   UNL     1     148.348 166.234 189.951  0.00  0.00    +0.000 C 
ATOM     16  C   UNL     1     147.935 166.753 191.345  0.00  0.00    +0.066 C 
ATOM     17  C   UNL     1     147.219 165.622 192.146  0.00  0.00    +0.009 C 
ATOM     18  C   UNL     1     145.793 166.022 192.606  0.00  0.00    +0.063 C 
ATOM     19  C   UNL     1     144.809 166.224 191.433  0.00  0.00    -0.000 C 
ATOM     20  C   UNL     1     143.360 166.394 191.934  0.00  0.00    +0.064 C 
ATOM     21  C   UNL     1     142.269 166.414 190.818  0.00  0.00    +0.020 C 
ATOM     22  C   UNL     1     142.477 167.533 189.749  0.00  0.00    +0.113 C 
ATOM     23  O   UNL     1     142.439 168.805 190.449  0.00  0.00    -0.458 OA
ATOM     24  C   UNL     1     143.423 169.693 190.145  0.00  0.00    +0.332 C 
ATOM     25  O   UNL     1     144.259 169.569 189.266  0.00  0.00    -0.246 OA
ATOM     26  C   UNL     1     143.299 170.871 191.033  0.00  0.00    +0.023 C 
ATOM     27  C   UNL     1     144.195 171.864 190.931  0.00  0.00    -0.052 C 
ATOM     28  C   UNL     1     144.198 173.099 191.706  0.00  0.00    -0.054 C 
ATOM     29  C   UNL     1     143.102 173.882 191.783  0.00  0.00    -0.079 C 
ATOM     30  C   UNL     1     142.967 175.197 192.501  0.00  0.00    -0.008 C 
ATOM     31  C   UNL     1     142.954 176.442 191.582  0.00  0.00    +0.061 C 
ATOM     32  C   UNL     1     141.585 176.683 190.913  0.00  0.00    +0.003 C 
ATOM     33  C   UNL     1     141.476 178.058 190.215  0.00  0.00    +0.080 C 
ATOM     34  O   UNL     1     142.097 178.045 188.918  0.00  0.00    -0.369 OA
ATOM     35  C   UNL     1     141.226 177.848 187.782  0.00  0.00    +0.065 C 
ATOM     36  C   UNL     1     142.130 177.979 186.543  0.00  0.00    +0.000 C 
ATOM     37  C   UNL     1     141.529 177.741 185.137  0.00  0.00    +0.066 C 
ATOM     38  C   UNL     1     141.002 176.284 184.959  0.00  0.00    +0.009 C 
ATOM     39  C   UNL     1     141.471 175.601 183.643  0.00  0.00    +0.063 C 
ATOM     40  C   UNL     1     142.977 175.736 183.363  0.00  0.00    -0.000 C 
ATOM     41  C   UNL     1     143.564 174.501 182.652  0.00  0.00    +0.064 C 
ATOM     42  C   UNL     1     145.108 174.633 182.492  0.00  0.00    +0.020 C 
ATOM     43  C   UNL     1     140.083 178.874 187.775  0.00  0.00    -0.008 C 
ATOM     44  C   UNL     1     139.398 178.926 189.100  0.00  0.00    -0.083 C 
ATOM     45  C   UNL     1     140.048 178.550 190.203  0.00  0.00    -0.059 C 
ATOM     46  C   UNL     1     148.113 168.515 188.709  0.00  0.00    -0.008 C 
ATOM     47  C   UNL     1     147.051 168.119 187.737  0.00  0.00    -0.083 C 
ATOM     48  C   UNL     1     147.240 167.067 186.929  0.00  0.00    -0.059 C 
ATOM     49  H   UNL     1     147.026 174.218 183.313  0.00  0.00    +0.074 HD
ATOM     50  H   UNL     1     147.502 169.936 182.000  0.00  0.00    +0.069 HD
ATOM     51  H   UNL     1     145.478 170.130 184.324  0.00  0.00    +0.062 HD
ATOM     52  H   UNL     1     148.154 167.990 183.333  0.00  0.00    +0.058 HD
ATOM     53  H   UNL     1     146.520 165.608 184.370  0.00  0.00    +0.033 HD
ATOM     54  H   UNL     1     147.214 165.480 182.775  0.00  0.00    +0.033 HD
ATOM     55  H   UNL     1     149.421 165.606 183.539  0.00  0.00    +0.060 HD
ATOM     56  H   UNL     1     149.386 167.395 185.252  0.00  0.00    +0.032 HD
ATOM     57  H   UNL     1     150.265 165.966 185.697  0.00  0.00    +0.032 HD
ATOM     58  H   UNL     1     148.301 165.221 187.140  0.00  0.00    +0.064 HD
ATOM     59  H   UNL     1     149.888 167.693 189.581  0.00  0.00    +0.060 HD
ATOM     60  H   UNL     1     149.074 165.417 190.068  0.00  0.00    +0.032 HD
ATOM     61  H   UNL     1     147.478 165.794 189.449  0.00  0.00    +0.032 HD
ATOM     62  H   UNL     1     147.259 167.603 191.207  0.00  0.00    +0.060 HD
ATOM     63  H   UNL     1     147.087 164.751 191.487  0.00  0.00    +0.035 HD
ATOM     64  H   UNL     1     145.401 165.224 193.249  0.00  0.00    +0.060 HD
ATOM     65  H   UNL     1     145.097 167.127 190.883  0.00  0.00    +0.032 HD
ATOM     66  H   UNL     1     144.874 165.366 190.753  0.00  0.00    +0.032 HD
ATOM     67  H   UNL     1     143.125 165.565 192.614  0.00  0.00    +0.060 HD
ATOM     68  H   UNL     1     141.326 166.626 191.339  0.00  0.00    +0.036 HD
ATOM     69  H   UNL     1     143.466 167.365 189.307  0.00  0.00    +0.074 HD
ATOM     70  H   UNL     1     142.483 170.888 191.743  0.00  0.00    +0.069 HD
ATOM     71  H   UNL     1     145.013 171.771 190.215  0.00  0.00    +0.062 HD
ATOM     72  H   UNL     1     142.188 173.554 191.293  0.00  0.00    +0.058 HD
ATOM     73  H   UNL     1     142.044 175.173 193.097  0.00  0.00    +0.033 HD
ATOM     74  H   UNL     1     143.757 175.309 193.252  0.00  0.00    +0.033 HD
ATOM     75  H   UNL     1     143.734 176.372 190.815  0.00  0.00    +0.060 HD
ATOM     76  H   UNL     1     140.820 176.625 191.700  0.00  0.00    +0.032 HD
ATOM     77  H   UNL     1     141.384 175.878 190.197  0.00  0.00    +0.032 HD
ATOM     78  H   UNL     1     142.035 178.804 190.791  0.00  0.00    +0.064 HD
ATOM     79  H   UNL     1     140.825 176.831 187.847  0.00  0.00    +0.060 HD
ATOM     80  H   UNL     1     142.976 177.286 186.671  0.00  0.00    +0.032 HD
ATOM     81  H   UNL     1     142.593 178.973 186.569  0.00  0.00    +0.032 HD
ATOM     82  H   UNL     1     142.357 177.901 184.439  0.00  0.00    +0.060 HD
ATOM     83  H   UNL     1     141.441 175.675 185.757  0.00  0.00    +0.035 HD
ATOM     84  H   UNL     1     141.215 174.538 183.733  0.00  0.00    +0.060 HD
ATOM     85  H   UNL     1     143.142 176.612 182.720  0.00  0.00    +0.032 HD
ATOM     86  H   UNL     1     143.512 175.917 184.291  0.00  0.00    +0.032 HD
ATOM     87  H   UNL     1     143.320 173.584 183.196  0.00  0.00    +0.060 HD
ATOM     88  H   UNL     1     145.358 175.701 182.557  0.00  0.00    +0.036 HD
ATOM     89  H   UNL     1     139.343 178.619 187.009  0.00  0.00    +0.033 HD
ATOM     90  H   UNL     1     140.461 179.879 187.556  0.00  0.00    +0.033 HD
ATOM     91  H   UNL     1     138.385 179.313 189.151  0.00  0.00    +0.057 HD
ATOM     92  H   UNL     1     139.547 178.629 191.166  0.00  0.00    +0.059 HD
ATOM     93  H   UNL     1     148.719 169.298 188.235  0.00  0.00    +0.033 HD
ATOM     94  H   UNL     1     147.664 168.954 189.602  0.00  0.00    +0.033 HD
ATOM     95  H   UNL     1     146.124 168.684 187.709  0.00  0.00    +0.057 HD
ATOM     96  H   UNL     1     146.429 166.763 186.277  0.00  0.00    +0.059 HD
ENDROOT
BRANCH  28  97
ATOM     97  C   UNL     1     145.544 173.438 192.292  0.00  0.00    -0.040 C 
ATOM     98  H   UNL     1     145.511 174.400 192.817  0.00  0.00    +0.028 HD
ATOM     99  H   UNL     1     146.293 173.509 191.496  0.00  0.00    +0.028 HD
ATOM    100  H   UNL     1     145.898 172.702 193.019  0.00  0.00    +0.028 HD
ENDBRANCH  28  97
BRANCH  21 101
ATOM    101  C   UNL     1     142.151 165.022 190.186  0.00  0.00    -0.057 C 
ATOM    102  H   UNL     1     141.159 164.587 190.348  0.00  0.00    +0.023 HD
ATOM    103  H   UNL     1     142.893 164.333 190.601  0.00  0.00    +0.023 HD
ATOM    104  H   UNL     1     142.331 165.063 189.106  0.00  0.00    +0.023 HD
ENDBRANCH  21 101
BRANCH  42 105
ATOM    105  C   UNL     1     145.562 174.200 181.078  0.00  0.00    -0.057 C 
ATOM    106  H   UNL     1     145.787 173.128 181.046  0.00  0.00    +0.023 HD
ATOM    107  H   UNL     1     144.796 174.416 180.324  0.00  0.00    +0.023 HD
ATOM    108  H   UNL     1     146.483 174.717 180.784  0.00  0.00    +0.023 HD
ENDBRANCH  42 105
BRANCH  17 109
ATOM    109  C   UNL     1     148.036 165.123 193.347  0.00  0.00    -0.058 C 
ATOM    110  H   UNL     1     147.477 165.197 194.285  0.00  0.00    +0.023 HD
ATOM    111  H   UNL     1     148.313 164.071 193.212  0.00  0.00    +0.023 HD
ATOM    112  H   UNL     1     148.966 165.692 193.451  0.00  0.00    +0.023 HD
ENDBRANCH  17 109
BRANCH  38 113
ATOM    113  C   UNL     1     139.473 176.171 185.082  0.00  0.00    -0.058 C 
ATOM    114  H   UNL     1     139.153 175.990 186.115  0.00  0.00    +0.023 HD
ATOM    115  H   UNL     1     139.083 175.359 184.462  0.00  0.00    +0.023 HD
ATOM    116  H   UNL     1     138.990 177.098 184.754  0.00  0.00    +0.023 HD
ENDBRANCH  38 113
BRANCH   7 117
ATOM    117  C   UNL     1     144.709 167.612 183.812  0.00  0.00    -0.040 C 
ATOM    118  H   UNL     1     143.936 168.245 183.361  0.00  0.00    +0.028 HD
ATOM    119  H   UNL     1     144.508 167.525 184.882  0.00  0.00    +0.028 HD
ATOM    120  H   UNL     1     144.599 166.622 183.363  0.00  0.00    +0.028 HD
ENDBRANCH   7 117
BRANCH   1 121
ATOM    121  C   UNL     1     145.880 174.263 185.086  0.00  0.00    +0.020 C 
ATOM    122  H   UNL     1     146.921 174.232 185.446  0.00  0.00    +0.036 HD
BRANCH 121 123
ATOM    123  C   UNL     1     145.394 175.719 185.215  0.00  0.00    -0.057 C 
ATOM    124  H   UNL     1     146.198 176.424 184.995  0.00  0.00    +0.023 HD
ATOM    125  H   UNL     1     145.014 175.942 186.214  0.00  0.00    +0.023 HD
ATOM    126  H   UNL     1     144.604 175.955 184.496  0.00  0.00    +0.023 HD
ENDBRANCH 121 123
BRANCH 121 127
ATOM    127  C   UNL     1     145.111 173.252 186.002  0.00  0.00    +0.064 C 
ATOM    128  H   UNL     1     145.274 172.249 185.617  0.00  0.00    +0.060 HD
BRANCH 127 129
ATOM    129  C   UNL     1     143.568 173.426 186.204  0.00  0.00    -0.017 C 
ATOM    130  H   UNL     1     143.299 174.438 185.873  0.00  0.00    +0.032 HD
BRANCH 129 131
ATOM    131  C   UNL     1     142.669 172.467 185.427  0.00  0.00    -0.060 C 
ATOM    132  H   UNL     1     142.983 171.430 185.572  0.00  0.00    +0.023 HD
ATOM    133  H   UNL     1     141.617 172.582 185.701  0.00  0.00    +0.023 HD
ATOM    134  H   UNL     1     142.745 172.652 184.347  0.00  0.00    +0.023 HD
ENDBRANCH 129 131
BRANCH 129 135
ATOM    135  C   UNL     1     143.187 173.313 187.710  0.00  0.00    -0.046 C 
ATOM    136  H   UNL     1     144.096 173.308 188.321  0.00  0.00    +0.027 HD
ATOM    137  H   UNL     1     142.715 172.342 187.883  0.00  0.00    +0.027 HD
BRANCH 135 138
ATOM    138  C   UNL     1     142.225 174.394 188.203  0.00  0.00    -0.026 C 
ATOM    139  H   UNL     1     142.067 175.127 187.407  0.00  0.00    +0.029 HD
ATOM    140  H   UNL     1     142.680 174.945 189.030  0.00  0.00    +0.029 HD
BRANCH 138 143
ATOM    141  C   UNL     1     139.895 172.025 189.904  0.00  0.00    +0.059 C 
ATOM    142  O   UNL     1     141.068 172.553 189.266  0.00  0.00    -0.373 OA
ATOM    143  C   UNL     1     140.867 173.832 188.657  0.00  0.00    +0.061 C 
ATOM    144  C   UNL     1     139.893 173.689 187.487  0.00  0.00    -0.000 C 
ATOM    145  C   UNL     1     138.826 172.614 187.729  0.00  0.00    +0.063 C 
ATOM    146  C   UNL     1     138.593 172.448 189.224  0.00  0.00    -0.000 C 
ATOM    147  H   UNL     1     139.985 170.935 189.821  0.00  0.00    +0.059 HD
ATOM    148  H   UNL     1     140.441 174.500 189.413  0.00  0.00    +0.060 HD
ATOM    149  H   UNL     1     139.433 174.659 187.284  0.00  0.00    +0.032 HD
ATOM    150  H   UNL     1     140.426 173.414 186.569  0.00  0.00    +0.032 HD
ATOM    151  H   UNL     1     139.179 171.667 187.299  0.00  0.00    +0.060 HD
ATOM    152  H   UNL     1     138.218 173.397 189.632  0.00  0.00    +0.032 HD
ATOM    153  H   UNL     1     137.808 171.714 189.439  0.00  0.00    +0.032 HD
BRANCH 141 154
ATOM    154  C   UNL     1     139.898 172.383 191.387  0.00  0.00    -0.039 C 
ATOM    155  H   UNL     1     140.897 172.672 191.724  0.00  0.00    +0.025 HD
ATOM    156  H   UNL     1     139.209 173.210 191.590  0.00  0.00    +0.025 HD
ATOM    157  H   UNL     1     139.596 171.523 191.991  0.00  0.00    +0.025 HD
ENDBRANCH 141 154
BRANCH 145 158
ATOM    158  O   UNL     1     137.640 173.028 187.044  0.00  0.00    -0.380 OA
BRANCH 158 159
ATOM    159  C   UNL     1     137.300 172.200 185.939  0.00  0.00    +0.037 C 
ATOM    160  H   UNL     1     137.972 172.446 185.111  0.00  0.00    +0.052 HD
ATOM    161  H   UNL     1     136.275 172.396 185.611  0.00  0.00    +0.052 HD
ATOM    162  H   UNL     1     137.423 171.141 186.183  0.00  0.00    +0.052 HD
ENDBRANCH 158 159
ENDBRANCH 145 158
ENDBRANCH 138 143
ENDBRANCH 135 138
ENDBRANCH 129 135
ENDBRANCH 127 129
BRANCH 127 163
ATOM    163  O   UNL     1     145.658 173.238 187.328  0.00  0.00    -0.391 OA
ATOM    164  H   UNL     1     145.239 172.525 187.839  0.00  0.00    +0.210 HD
ENDBRANCH 127 163
ENDBRANCH 121 127
ENDBRANCH   1 121
BRANCH  41 165
ATOM    165  O   UNL     1     142.937 174.397 181.369  0.00  0.00    -0.391 OA
ATOM    166  H   UNL     1     142.825 173.451 181.144  0.00  0.00    +0.210 HD
ENDBRANCH  41 165
BRANCH  39 167
ATOM    167  O   UNL     1     140.773 176.080 182.495  0.00  0.00    -0.391 OA
ATOM    168  H   UNL     1     141.222 175.732 181.700  0.00  0.00    +0.210 HD
ENDBRANCH  39 167
BRANCH  31 169
ATOM    169  O   UNL     1     143.264 177.572 192.410  0.00  0.00    -0.391 OA
ATOM    170  H   UNL     1     143.817 177.249 193.143  0.00  0.00    +0.210 HD
ENDBRANCH  31 169
BRANCH  22 171
ATOM    171  C   UNL     1     141.419 167.535 188.589  0.00  0.00    +0.020 C 
ATOM    172  H   UNL     1     140.858 166.599 188.675  0.00  0.00    +0.036 HD
BRANCH 171 173
ATOM    173  C   UNL     1     140.435 168.701 188.715  0.00  0.00    -0.057 C 
ATOM    174  H   UNL     1     139.467 168.446 188.282  0.00  0.00    +0.023 HD
ATOM    175  H   UNL     1     140.804 169.598 188.208  0.00  0.00    +0.023 HD
ATOM    176  H   UNL     1     140.273 168.982 189.759  0.00  0.00    +0.023 HD
ENDBRANCH 171 173
BRANCH 171 177
ATOM    177  C   UNL     1     142.111 167.516 187.200  0.00  0.00    +0.064 C 
ATOM    178  H   UNL     1     142.090 168.527 186.781  0.00  0.00    +0.060 HD
BRANCH 177 179
ATOM    179  O   UNL     1     143.479 167.158 187.403  0.00  0.00    -0.391 OA
ATOM    180  H   UNL     1     143.490 166.516 188.148  0.00  0.00    +0.210 HD
ENDBRANCH 177 179
BRANCH 177 181
ATOM    181  C   UNL     1     141.506 166.576 186.119  0.00  0.00    -0.017 C 
ATOM    182  H   UNL     1     142.339 166.086 185.595  0.00  0.00    +0.032 HD
BRANCH 181 183
ATOM    183  C   UNL     1     140.695 165.465 186.809  0.00  0.00    -0.060 C 
ATOM    184  H   UNL     1     140.977 164.473 186.440  0.00  0.00    +0.023 HD
ATOM    185  H   UNL     1     140.836 165.476 187.894  0.00  0.00    +0.023 HD
ATOM    186  H   UNL     1     139.626 165.592 186.631  0.00  0.00    +0.023 HD
ENDBRANCH 181 183
BRANCH 181 187
ATOM    187  C   UNL     1     140.628 167.300 185.073  0.00  0.00    -0.046 C 
ATOM    188  H   UNL     1     139.645 167.528 185.500  0.00  0.00    +0.027 HD
ATOM    189  H   UNL     1     140.453 166.636 184.217  0.00  0.00    +0.027 HD
BRANCH 187 190
ATOM    190  C   UNL     1     141.250 168.624 184.595  0.00  0.00    -0.026 C 
ATOM    191  H   UNL     1     142.321 168.483 184.431  0.00  0.00    +0.029 HD
ATOM    192  H   UNL     1     141.151 169.373 185.389  0.00  0.00    +0.029 HD
BRANCH 190 193
ATOM    193  C   UNL     1     140.598 169.164 183.310  0.00  0.00    +0.061 C 
ATOM    194  O   UNL     1     140.496 168.171 182.286  0.00  0.00    -0.373 OA
ATOM    195  C   UNL     1     141.741 167.771 181.707  0.00  0.00    +0.059 C 
ATOM    196  C   UNL     1     142.468 168.966 181.093  0.00  0.00    -0.000 C 
ATOM    197  C   UNL     1     142.650 170.081 182.123  0.00  0.00    +0.063 C 
ATOM    198  C   UNL     1     141.303 170.410 182.769  0.00  0.00    -0.000 C 
ATOM    199  H   UNL     1     139.569 169.449 183.560  0.00  0.00    +0.060 HD
ATOM    200  H   UNL     1     142.364 167.299 182.476  0.00  0.00    +0.059 HD
ATOM    201  H   UNL     1     141.899 169.362 180.242  0.00  0.00    +0.032 HD
ATOM    202  H   UNL     1     143.437 168.648 180.693  0.00  0.00    +0.032 HD
ATOM    203  H   UNL     1     143.355 169.766 182.902  0.00  0.00    +0.060 HD
ATOM    204  H   UNL     1     140.663 170.880 182.009  0.00  0.00    +0.032 HD
ATOM    205  H   UNL     1     141.434 171.165 183.554  0.00  0.00    +0.032 HD
BRANCH 195 206
ATOM    206  C   UNL     1     141.432 166.720 180.646  0.00  0.00    -0.039 C 
ATOM    207  H   UNL     1     140.350 166.579 180.554  0.00  0.00    +0.025 HD
ATOM    208  H   UNL     1     141.891 165.759 180.898  0.00  0.00    +0.025 HD
ATOM    209  H   UNL     1     141.794 167.039 179.662  0.00  0.00    +0.025 HD
ENDBRANCH 195 206
BRANCH 197 210
ATOM    210  O   UNL     1     143.134 171.285 181.516  0.00  0.00    -0.380 OA
BRANCH 210 211
ATOM    211  C   UNL     1     143.947 171.063 180.369  0.00  0.00    +0.037 C 
ATOM    212  H   UNL     1     143.549 171.671 179.551  0.00  0.00    +0.052 HD
ATOM    213  H   UNL     1     143.911 170.015 180.062  0.00  0.00    +0.052 HD
ATOM    214  H   UNL     1     144.979 171.369 180.561  0.00  0.00    +0.052 HD
ENDBRANCH 210 211
ENDBRANCH 197 210
ENDBRANCH 190 193
ENDBRANCH 187 190
ENDBRANCH 181 187
ENDBRANCH 177 181
ENDBRANCH 171 177
ENDBRANCH  22 171
BRANCH  20 215
ATOM    215  O   UNL     1     143.305 167.580 192.740  0.00  0.00    -0.391 OA
ATOM    216  H   UNL     1     142.766 167.376 193.526  0.00  0.00    +0.210 HD
ENDBRANCH  20 215
BRANCH  18 217
ATOM    217  O   UNL     1     145.856 167.205 193.405  0.00  0.00    -0.391 OA
ATOM    218  H   UNL     1     144.935 167.413 193.665  0.00  0.00    +0.210 HD
ENDBRANCH  18 217
BRANCH  10 219
ATOM    219  O   UNL     1     148.580 164.162 184.696  0.00  0.00    -0.391 OA
ATOM    220  H   UNL     1     148.089 164.110 185.536  0.00  0.00    +0.210 HD
ENDBRANCH  10 219
BRANCH  37 221
ATOM    221  O   UNL     1     140.511 178.676 184.779  0.00  0.00    -0.379 OA
BRANCH 221 222
ATOM    222  C   UNL     1     140.822 179.480 183.649  0.00  0.00    +0.037 C 
ATOM    223  H   UNL     1     139.992 180.174 183.490  0.00  0.00    +0.052 HD
ATOM    224  H   UNL     1     141.726 180.068 183.820  0.00  0.00    +0.052 HD
ATOM    225  H   UNL     1     140.936 178.863 182.753  0.00  0.00    +0.052 HD
ENDBRANCH 221 222
ENDBRANCH  37 221
BRANCH  16 226
ATOM    226  O   UNL     1     149.141 167.190 191.992  0.00  0.00    -0.379 OA
BRANCH 226 227
ATOM    227  C   UNL     1     149.059 168.529 192.464  0.00  0.00    +0.037 C 
ATOM    228  H   UNL     1     148.257 168.651 193.199  0.00  0.00    +0.052 HD
ATOM    229  H   UNL     1     148.900 169.207 191.618  0.00  0.00    +0.052 HD
ATOM    230  H   UNL     1     150.009 168.786 192.944  0.00  0.00    +0.052 HD
ENDBRANCH 226 227
ENDBRANCH  16 226
TORSDOF 40
ENDMDL
MODEL 6
REMARK VINA RESULT:      -4.6      5.322     12.687
REMARK  Name = Swinholide A_conf1
REMARK  40 active torsions:
REMARK  status: ('A' for Active; 'I' for Inactive)
REMARK    1  A    between atoms: C_1  and  C_2
REMARK    2  A    between atoms: C_4  and  C_10
REMARK    3  A    between atoms: C_6  and  O_8
REMARK    4  A    between atoms: O_8  and  C_9
REMARK    5  A    between atoms: C_10  and  C_11
REMARK    6  A    between atoms: C_11  and  C_12
REMARK    7  A    between atoms: C_12  and  C_13
REMARK    8  A    between atoms: C_12  and  C_98
REMARK    9  A    between atoms: C_13  and  O_14
REMARK   10  A    between atoms: C_13  and  C_15
REMARK   11  A    between atoms: C_15  and  C_16
REMARK   12  A    between atoms: C_15  and  C_97
REMARK   13  A    between atoms: C_22  and  C_96
REMARK   14  A    between atoms: C_25  and  O_95
REMARK   15  A    between atoms: C_31  and  O_90
REMARK   16  A    between atoms: C_32  and  C_89
REMARK   17  A    between atoms: C_33  and  O_88
REMARK   18  A    between atoms: C_35  and  O_87
REMARK   19  A    between atoms: C_36  and  C_86
REMARK   20  A    between atoms: C_37  and  C_69
REMARK   21  A    between atoms: C_43  and  C_68
REMARK   22  A    between atoms: C_46  and  O_67
REMARK   23  A    between atoms: C_52  and  O_62
REMARK   24  A    between atoms: C_53  and  C_61
REMARK   25  A    between atoms: C_54  and  O_60
REMARK   26  A    between atoms: C_56  and  O_59
REMARK   27  A    between atoms: C_57  and  C_58
REMARK   28  A    between atoms: O_62  and  C_63
REMARK   29  A    between atoms: C_69  and  C_70
REMARK   30  A    between atoms: C_69  and  C_85
REMARK   31  A    between atoms: C_70  and  O_71
REMARK   32  A    between atoms: C_70  and  C_72
REMARK   33  A    between atoms: C_72  and  C_73
REMARK   34  A    between atoms: C_72  and  C_84
REMARK   35  A    between atoms: C_73  and  C_74
REMARK   36  A    between atoms: C_74  and  C_75
REMARK   37  A    between atoms: C_77  and  C_83
REMARK   38  A    between atoms: C_79  and  O_81
REMARK   39  A    between atoms: O_81  and  C_82
REMARK   40  A    between atoms: O_90  and  C_91
REMARK                            x       y       z     vdW  Elec       q    Type
REMARK                         _______ _______ _______ _____ _____    ______ ____
ROOT
ATOM      1  C   UNL     1     145.973 173.840 183.561  0.00  0.00    +0.113 C 
ATOM      2  O   UNL     1     145.902 172.395 183.420  0.00  0.00    -0.458 OA
ATOM      3  C   UNL     1     146.970 171.801 182.820  0.00  0.00    +0.332 C 
ATOM      4  O   UNL     1     147.949 172.374 182.356  0.00  0.00    -0.246 OA
ATOM      5  C   UNL     1     146.853 170.336 182.759  0.00  0.00    +0.023 C 
ATOM      6  C   UNL     1     146.109 169.597 183.594  0.00  0.00    -0.052 C 
ATOM      7  C   UNL     1     146.098 168.138 183.624  0.00  0.00    -0.054 C 
ATOM      8  C   UNL     1     147.239 167.423 183.545  0.00  0.00    -0.079 C 
ATOM      9  C   UNL     1     147.376 165.941 183.788  0.00  0.00    -0.008 C 
ATOM     10  C   UNL     1     148.728 165.512 184.390  0.00  0.00    +0.061 C 
ATOM     11  C   UNL     1     149.291 166.321 185.567  0.00  0.00    +0.003 C 
ATOM     12  C   UNL     1     148.570 166.245 186.926  0.00  0.00    +0.080 C 
ATOM     13  O   UNL     1     149.554 166.730 187.874  0.00  0.00    -0.369 OA
ATOM     14  C   UNL     1     149.052 167.307 189.090  0.00  0.00    +0.065 C 
ATOM     15  C   UNL     1     148.410 166.231 189.992  0.00  0.00    +0.000 C 
ATOM     16  C   UNL     1     147.997 166.755 191.384  0.00  0.00    +0.066 C 
ATOM     17  C   UNL     1     147.294 165.622 192.195  0.00  0.00    +0.009 C 
ATOM     18  C   UNL     1     145.866 166.012 192.658  0.00  0.00    +0.063 C 
ATOM     19  C   UNL     1     144.876 166.198 191.487  0.00  0.00    -0.000 C 
ATOM     20  C   UNL     1     143.427 166.359 191.991  0.00  0.00    +0.064 C 
ATOM     21  C   UNL     1     142.332 166.362 190.879  0.00  0.00    +0.020 C 
ATOM     22  C   UNL     1     142.527 167.477 189.803  0.00  0.00    +0.113 C 
ATOM     23  O   UNL     1     142.480 168.752 190.495  0.00  0.00    -0.458 OA
ATOM     24  C   UNL     1     143.455 169.648 190.182  0.00  0.00    +0.332 C 
ATOM     25  O   UNL     1     144.289 169.526 189.301  0.00  0.00    -0.246 OA
ATOM     26  C   UNL     1     143.324 170.830 191.064  0.00  0.00    +0.023 C 
ATOM     27  C   UNL     1     144.211 171.830 190.953  0.00  0.00    -0.052 C 
ATOM     28  C   UNL     1     144.205 173.070 191.720  0.00  0.00    -0.054 C 
ATOM     29  C   UNL     1     143.102 173.843 191.796  0.00  0.00    -0.079 C 
ATOM     30  C   UNL     1     142.959 175.162 192.506  0.00  0.00    -0.008 C 
ATOM     31  C   UNL     1     142.931 176.401 191.580  0.00  0.00    +0.061 C 
ATOM     32  C   UNL     1     141.557 176.626 190.915  0.00  0.00    +0.003 C 
ATOM     33  C   UNL     1     141.434 177.995 190.209  0.00  0.00    +0.080 C 
ATOM     34  O   UNL     1     142.051 177.980 188.910  0.00  0.00    -0.369 OA
ATOM     35  C   UNL     1     141.178 177.769 187.778  0.00  0.00    +0.065 C 
ATOM     36  C   UNL     1     142.077 177.899 186.535  0.00  0.00    +0.000 C 
ATOM     37  C   UNL     1     141.473 177.648 185.133  0.00  0.00    +0.066 C 
ATOM     38  C   UNL     1     140.959 176.185 184.965  0.00  0.00    +0.009 C 
ATOM     39  C   UNL     1     141.429 175.499 183.652  0.00  0.00    +0.063 C 
ATOM     40  C   UNL     1     142.933 175.646 183.366  0.00  0.00    -0.000 C 
ATOM     41  C   UNL     1     143.528 174.412 182.660  0.00  0.00    +0.064 C 
ATOM     42  C   UNL     1     145.070 174.556 182.494  0.00  0.00    +0.020 C 
ATOM     43  C   UNL     1     140.026 178.784 187.769  0.00  0.00    -0.008 C 
ATOM     44  C   UNL     1     139.345 178.838 189.095  0.00  0.00    -0.083 C 
ATOM     45  C   UNL     1     140.002 178.474 190.199  0.00  0.00    -0.059 C 
ATOM     46  C   UNL     1     148.151 168.503 188.737  0.00  0.00    -0.008 C 
ATOM     47  C   UNL     1     147.089 168.091 187.771  0.00  0.00    -0.083 C 
ATOM     48  C   UNL     1     147.284 167.036 186.969  0.00  0.00    -0.059 C 
ATOM     49  H   UNL     1     146.995 174.163 183.311  0.00  0.00    +0.074 HD
ATOM     50  H   UNL     1     147.505 169.878 182.022  0.00  0.00    +0.069 HD
ATOM     51  H   UNL     1     145.486 170.068 184.352  0.00  0.00    +0.062 HD
ATOM     52  H   UNL     1     148.178 167.946 183.365  0.00  0.00    +0.058 HD
ATOM     53  H   UNL     1     146.569 165.555 184.421  0.00  0.00    +0.033 HD
ATOM     54  H   UNL     1     147.259 165.424 182.825  0.00  0.00    +0.033 HD
ATOM     55  H   UNL     1     149.467 165.574 183.580  0.00  0.00    +0.060 HD
ATOM     56  H   UNL     1     149.422 167.373 185.283  0.00  0.00    +0.032 HD
ATOM     57  H   UNL     1     150.314 165.954 185.734  0.00  0.00    +0.032 HD
ATOM     58  H   UNL     1     148.362 165.201 187.187  0.00  0.00    +0.064 HD
ATOM     59  H   UNL     1     149.935 167.702 189.608  0.00  0.00    +0.060 HD
ATOM     60  H   UNL     1     149.144 165.422 190.112  0.00  0.00    +0.032 HD
ATOM     61  H   UNL     1     147.542 165.781 189.496  0.00  0.00    +0.032 HD
ATOM     62  H   UNL     1     147.313 167.598 191.244  0.00  0.00    +0.060 HD
ATOM     63  H   UNL     1     147.167 164.747 191.542  0.00  0.00    +0.035 HD
ATOM     64  H   UNL     1     145.483 165.215 193.307  0.00  0.00    +0.060 HD
ATOM     65  H   UNL     1     145.154 167.101 190.930  0.00  0.00    +0.032 HD
ATOM     66  H   UNL     1     144.946 165.338 190.812  0.00  0.00    +0.032 HD
ATOM     67  H   UNL     1     143.202 165.532 192.678  0.00  0.00    +0.060 HD
ATOM     68  H   UNL     1     141.390 166.570 191.402  0.00  0.00    +0.036 HD
ATOM     69  H   UNL     1     143.516 167.315 189.358  0.00  0.00    +0.074 HD
ATOM     70  H   UNL     1     142.510 170.844 191.776  0.00  0.00    +0.069 HD
ATOM     71  H   UNL     1     145.026 171.740 190.234  0.00  0.00    +0.062 HD
ATOM     72  H   UNL     1     142.189 173.504 191.312  0.00  0.00    +0.058 HD
ATOM     73  H   UNL     1     142.038 175.133 193.106  0.00  0.00    +0.033 HD
ATOM     74  H   UNL     1     143.750 175.285 193.254  0.00  0.00    +0.033 HD
ATOM     75  H   UNL     1     143.709 176.333 190.811  0.00  0.00    +0.060 HD
ATOM     76  H   UNL     1     140.796 176.565 191.704  0.00  0.00    +0.032 HD
ATOM     77  H   UNL     1     141.361 175.814 190.204  0.00  0.00    +0.032 HD
ATOM     78  H   UNL     1     141.989 178.750 190.778  0.00  0.00    +0.064 HD
ATOM     79  H   UNL     1     140.786 176.749 187.850  0.00  0.00    +0.060 HD
ATOM     80  H   UNL     1     142.929 177.215 186.664  0.00  0.00    +0.032 HD
ATOM     81  H   UNL     1     142.530 178.898 186.553  0.00  0.00    +0.032 HD
ATOM     82  H   UNL     1     142.297 177.811 184.431  0.00  0.00    +0.060 HD
ATOM     83  H   UNL     1     141.405 175.585 185.765  0.00  0.00    +0.035 HD
ATOM     84  H   UNL     1     141.183 174.434 183.749  0.00  0.00    +0.060 HD
ATOM     85  H   UNL     1     143.088 176.519 182.717  0.00  0.00    +0.032 HD
ATOM     86  H   UNL     1     143.469 175.837 184.291  0.00  0.00    +0.032 HD
ATOM     87  H   UNL     1     143.295 173.496 183.210  0.00  0.00    +0.060 HD
ATOM     88  H   UNL     1     145.311 175.627 182.551  0.00  0.00    +0.036 HD
ATOM     89  H   UNL     1     139.286 178.518 187.007  0.00  0.00    +0.033 HD
ATOM     90  H   UNL     1     140.394 179.791 187.542  0.00  0.00    +0.033 HD
ATOM     91  H   UNL     1     138.328 179.217 189.147  0.00  0.00    +0.057 HD
ATOM     92  H   UNL     1     139.504 178.555 191.163  0.00  0.00    +0.059 HD
ATOM     93  H   UNL     1     148.748 169.288 188.257  0.00  0.00    +0.033 HD
ATOM     94  H   UNL     1     147.701 168.943 189.630  0.00  0.00    +0.033 HD
ATOM     95  H   UNL     1     146.157 168.648 187.743  0.00  0.00    +0.057 HD
ATOM     96  H   UNL     1     146.474 166.721 186.322  0.00  0.00    +0.059 HD
ENDROOT
BRANCH  28  97
ATOM     97  C   UNL     1     145.550 173.424 192.300  0.00  0.00    -0.040 C 
ATOM     98  H   UNL     1     145.751 172.841 193.207  0.00  0.00    +0.028 HD
ATOM     99  H   UNL     1     145.577 174.487 192.564  0.00  0.00    +0.028 HD
ATOM    100  H   UNL     1     146.381 173.228 191.617  0.00  0.00    +0.028 HD
ENDBRANCH  28  97
BRANCH  21 101
ATOM    101  C   UNL     1     142.224 164.966 190.255  0.00  0.00    -0.057 C 
ATOM    102  H   UNL     1     143.112 164.717 189.665  0.00  0.00    +0.023 HD
ATOM    103  H   UNL     1     141.351 164.891 189.599  0.00  0.00    +0.023 HD
ATOM    104  H   UNL     1     142.103 164.198 191.027  0.00  0.00    +0.023 HD
ENDBRANCH  21 101
BRANCH  42 105
ATOM    105  C   UNL     1     145.523 174.118 181.081  0.00  0.00    -0.057 C 
ATOM    106  H   UNL     1     144.709 173.621 180.542  0.00  0.00    +0.023 HD
ATOM    107  H   UNL     1     145.863 174.972 180.484  0.00  0.00    +0.023 HD
ATOM    108  H   UNL     1     146.344 173.394 181.136  0.00  0.00    +0.023 HD
ENDBRANCH  42 105
BRANCH  17 109
ATOM    109  C   UNL     1     148.119 165.138 193.396  0.00  0.00    -0.058 C 
ATOM    110  H   UNL     1     149.012 165.749 193.557  0.00  0.00    +0.023 HD
ATOM    111  H   UNL     1     147.521 165.180 194.314  0.00  0.00    +0.023 HD
ATOM    112  H   UNL     1     148.431 164.097 193.260  0.00  0.00    +0.023 HD
ENDBRANCH  17 109
BRANCH  38 113
ATOM    113  C   UNL     1     139.431 176.059 185.094  0.00  0.00    -0.058 C 
ATOM    114  H   UNL     1     138.921 177.016 184.934  0.00  0.00    +0.023 HD
ATOM    115  H   UNL     1     139.145 175.687 186.081  0.00  0.00    +0.023 HD
ATOM    116  H   UNL     1     139.037 175.357 184.350  0.00  0.00    +0.023 HD
ENDBRANCH  38 113
BRANCH   7 117
ATOM    117  C   UNL     1     144.738 167.540 183.858  0.00  0.00    -0.040 C 
ATOM    118  H   UNL     1     144.473 166.853 183.046  0.00  0.00    +0.028 HD
ATOM    119  H   UNL     1     143.984 168.327 183.909  0.00  0.00    +0.028 HD
ATOM    120  H   UNL     1     144.689 166.959 184.782  0.00  0.00    +0.028 HD
ENDBRANCH   7 117
BRANCH   1 121
ATOM    121  C   UNL     1     145.855 174.209 185.087  0.00  0.00    +0.020 C 
ATOM    122  H   UNL     1     146.885 174.104 185.464  0.00  0.00    +0.036 HD
BRANCH 121 123
ATOM    123  C   UNL     1     145.470 175.695 185.210  0.00  0.00    -0.057 C 
ATOM    124  H   UNL     1     145.969 176.296 184.447  0.00  0.00    +0.023 HD
ATOM    125  H   UNL     1     145.725 176.110 186.187  0.00  0.00    +0.023 HD
ATOM    126  H   UNL     1     144.400 175.858 185.046  0.00  0.00    +0.023 HD
ENDBRANCH 121 123
BRANCH 121 127
ATOM    127  C   UNL     1     145.002 173.254 185.991  0.00  0.00    +0.064 C 
ATOM    128  H   UNL     1     145.100 172.243 185.607  0.00  0.00    +0.060 HD
BRANCH 127 129
ATOM    129  C   UNL     1     143.473 173.537 186.170  0.00  0.00    -0.017 C 
ATOM    130  H   UNL     1     143.258 174.517 185.721  0.00  0.00    +0.032 HD
BRANCH 129 131
ATOM    131  C   UNL     1     142.516 172.544 185.511  0.00  0.00    -0.060 C 
ATOM    132  H   UNL     1     142.008 171.933 186.263  0.00  0.00    +0.023 HD
ATOM    133  H   UNL     1     141.782 173.046 184.877  0.00  0.00    +0.023 HD
ATOM    134  H   UNL     1     143.068 171.838 184.876  0.00  0.00    +0.023 HD
ENDBRANCH 129 131
BRANCH 129 135
ATOM    135  C   UNL     1     143.095 173.625 187.678  0.00  0.00    -0.046 C 
ATOM    136  H   UNL     1     142.735 174.633 187.910  0.00  0.00    +0.027 HD
ATOM    137  H   UNL     1     144.000 173.495 188.277  0.00  0.00    +0.027 HD
BRANCH 135 138
ATOM    138  C   UNL     1     142.076 172.581 188.138  0.00  0.00    -0.026 C 
ATOM    139  H   UNL     1     142.597 171.774 188.661  0.00  0.00    +0.029 HD
ATOM    140  H   UNL     1     141.603 172.118 187.269  0.00  0.00    +0.029 HD
BRANCH 138 143
ATOM    141  C   UNL     1     139.257 172.510 190.585  0.00  0.00    +0.059 C 
ATOM    142  O   UNL     1     140.180 172.100 189.563  0.00  0.00    -0.373 OA
ATOM    143  C   UNL     1     140.988 173.165 189.055  0.00  0.00    +0.061 C 
ATOM    144  C   UNL     1     140.100 174.167 188.314  0.00  0.00    -0.000 C 
ATOM    145  C   UNL     1     138.703 174.295 188.934  0.00  0.00    +0.063 C 
ATOM    146  C   UNL     1     138.763 173.947 190.414  0.00  0.00    -0.000 C 
ATOM    147  H   UNL     1     138.396 171.838 190.485  0.00  0.00    +0.059 HD
ATOM    148  H   UNL     1     141.468 173.657 189.908  0.00  0.00    +0.060 HD
ATOM    149  H   UNL     1     140.605 175.136 188.281  0.00  0.00    +0.032 HD
ATOM    150  H   UNL     1     139.964 173.866 187.269  0.00  0.00    +0.032 HD
ATOM    151  H   UNL     1     138.025 173.604 188.414  0.00  0.00    +0.060 HD
ATOM    152  H   UNL     1     139.426 174.662 190.921  0.00  0.00    +0.032 HD
ATOM    153  H   UNL     1     137.789 174.062 190.904  0.00  0.00    +0.032 HD
BRANCH 141 154
ATOM    154  C   UNL     1     139.868 172.286 191.964  0.00  0.00    -0.039 C 
ATOM    155  H   UNL     1     139.393 171.445 192.477  0.00  0.00    +0.025 HD
ATOM    156  H   UNL     1     140.942 172.085 191.888  0.00  0.00    +0.025 HD
ATOM    157  H   UNL     1     139.724 173.166 192.597  0.00  0.00    +0.025 HD
ENDBRANCH 141 154
BRANCH 145 158
ATOM    158  O   UNL     1     138.262 175.639 188.717  0.00  0.00    -0.380 OA
BRANCH 158 159
ATOM    159  C   UNL     1     136.997 175.925 189.300  0.00  0.00    +0.037 C 
ATOM    160  H   UNL     1     136.766 176.977 189.111  0.00  0.00    +0.052 HD
ATOM    161  H   UNL     1     137.029 175.777 190.384  0.00  0.00    +0.052 HD
ATOM    162  H   UNL     1     136.207 175.310 188.859  0.00  0.00    +0.052 HD
ENDBRANCH 158 159
ENDBRANCH 145 158
ENDBRANCH 138 143
ENDBRANCH 135 138
ENDBRANCH 129 135
ENDBRANCH 127 129
BRANCH 127 163
ATOM    163  O   UNL     1     145.527 173.202 187.324  0.00  0.00    -0.391 OA
ATOM    164  H   UNL     1     146.339 172.667 187.328  0.00  0.00    +0.210 HD
ENDBRANCH 127 163
ENDBRANCH 121 127
ENDBRANCH   1 121
BRANCH  41 165
ATOM    165  O   UNL     1     142.898 174.294 181.380  0.00  0.00    -0.391 OA
ATOM    166  H   UNL     1     143.382 173.632 180.845  0.00  0.00    +0.210 HD
ENDBRANCH  41 165
BRANCH  39 167
ATOM    167  O   UNL     1     140.723 175.965 182.503  0.00  0.00    -0.391 OA
ATOM    168  H   UNL     1     141.242 176.688 182.100  0.00  0.00    +0.210 HD
ENDBRANCH  39 167
BRANCH  31 169
ATOM    169  O   UNL     1     143.234 177.539 192.401  0.00  0.00    -0.391 OA
ATOM    170  H   UNL     1     142.557 177.579 193.098  0.00  0.00    +0.210 HD
ENDBRANCH  31 169
BRANCH  22 171
ATOM    171  C   UNL     1     141.465 167.463 188.646  0.00  0.00    +0.020 C 
ATOM    172  H   UNL     1     140.845 166.574 188.802  0.00  0.00    +0.036 HD
BRANCH 171 173
ATOM    173  C   UNL     1     140.560 168.697 188.686  0.00  0.00    -0.057 C 
ATOM    174  H   UNL     1     139.522 168.416 188.868  0.00  0.00    +0.023 HD
ATOM    175  H   UNL     1     140.597 169.256 187.746  0.00  0.00    +0.023 HD
ATOM    176  H   UNL     1     140.862 169.395 189.472  0.00  0.00    +0.023 HD
ENDBRANCH 171 173
BRANCH 171 177
ATOM    177  C   UNL     1     142.147 167.295 187.262  0.00  0.00    +0.064 C 
ATOM    178  H   UNL     1     141.833 168.119 186.612  0.00  0.00    +0.060 HD
BRANCH 177 179
ATOM    179  O   UNL     1     143.558 167.409 187.457  0.00  0.00    -0.391 OA
ATOM    180  H   UNL     1     143.783 168.354 187.302  0.00  0.00    +0.210 HD
ENDBRANCH 177 179
BRANCH 177 181
ATOM    181  C   UNL     1     141.857 165.982 186.482  0.00  0.00    -0.017 C 
ATOM    182  H   UNL     1     141.742 166.239 185.421  0.00  0.00    +0.032 HD
BRANCH 181 183
ATOM    183  C   UNL     1     143.078 165.050 186.588  0.00  0.00    -0.060 C 
ATOM    184  H   UNL     1     142.884 164.079 186.120  0.00  0.00    +0.023 HD
ATOM    185  H   UNL     1     143.961 165.486 186.112  0.00  0.00    +0.023 HD
ATOM    186  H   UNL     1     143.341 164.867 187.631  0.00  0.00    +0.023 HD
ENDBRANCH 181 183
BRANCH 181 187
ATOM    187  C   UNL     1     140.583 165.239 186.947  0.00  0.00    -0.046 C 
ATOM    188  H   UNL     1     140.354 165.499 187.986  0.00  0.00    +0.027 HD
ATOM    189  H   UNL     1     140.762 164.156 186.925  0.00  0.00    +0.027 HD
BRANCH 187 190
ATOM    190  C   UNL     1     139.352 165.588 186.093  0.00  0.00    -0.026 C 
ATOM    191  H   UNL     1     139.615 166.376 185.383  0.00  0.00    +0.029 HD
ATOM    192  H   UNL     1     138.571 166.000 186.742  0.00  0.00    +0.029 HD
BRANCH 190 193
ATOM    193  C   UNL     1     138.786 164.376 185.332  0.00  0.00    +0.061 C 
ATOM    194  O   UNL     1     137.612 164.698 184.581  0.00  0.00    -0.373 OA
ATOM    195  C   UNL     1     136.452 164.980 185.368  0.00  0.00    +0.059 C 
ATOM    196  C   UNL     1     136.093 163.794 186.261  0.00  0.00    -0.000 C 
ATOM    197  C   UNL     1     137.285 163.386 187.127  0.00  0.00    +0.063 C 
ATOM    198  C   UNL     1     138.517 163.178 186.245  0.00  0.00    -0.000 C 
ATOM    199  H   UNL     1     139.540 164.069 184.598  0.00  0.00    +0.060 HD
ATOM    200  H   UNL     1     136.633 165.874 185.975  0.00  0.00    +0.059 HD
ATOM    201  H   UNL     1     135.792 162.934 185.649  0.00  0.00    +0.032 HD
ATOM    202  H   UNL     1     135.228 164.044 186.885  0.00  0.00    +0.032 HD
ATOM    203  H   UNL     1     137.499 164.166 187.868  0.00  0.00    +0.060 HD
ATOM    204  H   UNL     1     138.348 162.287 185.624  0.00  0.00    +0.032 HD
ATOM    205  H   UNL     1     139.391 162.946 186.865  0.00  0.00    +0.032 HD
BRANCH 195 206
ATOM    206  C   UNL     1     135.314 165.295 184.402  0.00  0.00    -0.039 C 
ATOM    207  H   UNL     1     135.638 166.032 183.660  0.00  0.00    +0.025 HD
ATOM    208  H   UNL     1     134.444 165.693 184.934  0.00  0.00    +0.025 HD
ATOM    209  H   UNL     1     135.011 164.400 183.848  0.00  0.00    +0.025 HD
ENDBRANCH 195 206
BRANCH 197 210
ATOM    210  O   UNL     1     137.040 162.150 187.811  0.00  0.00    -0.380 OA
BRANCH 210 211
ATOM    211  C   UNL     1     135.949 162.205 188.723  0.00  0.00    +0.037 C 
ATOM    212  H   UNL     1     136.338 162.521 189.696  0.00  0.00    +0.052 HD
ATOM    213  H   UNL     1     135.490 161.221 188.844  0.00  0.00    +0.052 HD
ATOM    214  H   UNL     1     135.204 162.935 188.392  0.00  0.00    +0.052 HD
ENDBRANCH 210 211
ENDBRANCH 197 210
ENDBRANCH 190 193
ENDBRANCH 187 190
ENDBRANCH 181 187
ENDBRANCH 177 181
ENDBRANCH 171 177
ENDBRANCH  22 171
BRANCH  20 215
ATOM    215  O   UNL     1     143.364 167.550 192.790  0.00  0.00    -0.391 OA
ATOM    216  H   UNL     1     144.043 167.472 193.485  0.00  0.00    +0.210 HD
ENDBRANCH  20 215
BRANCH  18 217
ATOM    217  O   UNL     1     145.921 167.201 193.449  0.00  0.00    -0.391 OA
ATOM    218  H   UNL     1     146.865 167.460 193.495  0.00  0.00    +0.210 HD
ENDBRANCH  18 217
BRANCH  10 219
ATOM    219  O   UNL     1     148.643 164.130 184.749  0.00  0.00    -0.391 OA
ATOM    220  H   UNL     1     147.952 163.727 184.192  0.00  0.00    +0.210 HD
ENDBRANCH  10 219
BRANCH  37 221
ATOM    221  O   UNL     1     140.446 178.572 184.773  0.00  0.00    -0.379 OA
BRANCH 221 222
ATOM    222  C   UNL     1     140.747 179.373 183.637  0.00  0.00    +0.037 C 
ATOM    223  H   UNL     1     141.677 179.001 183.200  0.00  0.00    +0.052 HD
ATOM    224  H   UNL     1     139.962 179.296 182.882  0.00  0.00    +0.052 HD
ATOM    225  H   UNL     1     140.892 180.418 183.927  0.00  0.00    +0.052 HD
ENDBRANCH 221 222
ENDBRANCH  37 221
BRANCH  16 226
ATOM    226  O   UNL     1     149.201 167.206 192.025  0.00  0.00    -0.379 OA
BRANCH 226 227
ATOM    227  C   UNL     1     149.105 168.544 192.498  0.00  0.00    +0.037 C 
ATOM    228  H   UNL     1     148.268 168.669 193.191  0.00  0.00    +0.052 HD
ATOM    229  H   UNL     1     148.994 169.227 191.648  0.00  0.00    +0.052 HD
ATOM    230  H   UNL     1     150.032 168.792 193.026  0.00  0.00    +0.052 HD
ENDBRANCH 226 227
ENDBRANCH  16 226
TORSDOF 40
ENDMDL
MODEL 7
REMARK VINA RESULT:      -4.5      6.062     14.163
REMARK  Name = Swinholide A_conf1
REMARK  40 active torsions:
REMARK  status: ('A' for Active; 'I' for Inactive)
REMARK    1  A    between atoms: C_1  and  C_2
REMARK    2  A    between atoms: C_4  and  C_10
REMARK    3  A    between atoms: C_6  and  O_8
REMARK    4  A    between atoms: O_8  and  C_9
REMARK    5  A    between atoms: C_10  and  C_11
REMARK    6  A    between atoms: C_11  and  C_12
REMARK    7  A    between atoms: C_12  and  C_13
REMARK    8  A    between atoms: C_12  and  C_98
REMARK    9  A    between atoms: C_13  and  O_14
REMARK   10  A    between atoms: C_13  and  C_15
REMARK   11  A    between atoms: C_15  and  C_16
REMARK   12  A    between atoms: C_15  and  C_97
REMARK   13  A    between atoms: C_22  and  C_96
REMARK   14  A    between atoms: C_25  and  O_95
REMARK   15  A    between atoms: C_31  and  O_90
REMARK   16  A    between atoms: C_32  and  C_89
REMARK   17  A    between atoms: C_33  and  O_88
REMARK   18  A    between atoms: C_35  and  O_87
REMARK   19  A    between atoms: C_36  and  C_86
REMARK   20  A    between atoms: C_37  and  C_69
REMARK   21  A    between atoms: C_43  and  C_68
REMARK   22  A    between atoms: C_46  and  O_67
REMARK   23  A    between atoms: C_52  and  O_62
REMARK   24  A    between atoms: C_53  and  C_61
REMARK   25  A    between atoms: C_54  and  O_60
REMARK   26  A    between atoms: C_56  and  O_59
REMARK   27  A    between atoms: C_57  and  C_58
REMARK   28  A    between atoms: O_62  and  C_63
REMARK   29  A    between atoms: C_69  and  C_70
REMARK   30  A    between atoms: C_69  and  C_85
REMARK   31  A    between atoms: C_70  and  O_71
REMARK   32  A    between atoms: C_70  and  C_72
REMARK   33  A    between atoms: C_72  and  C_73
REMARK   34  A    between atoms: C_72  and  C_84
REMARK   35  A    between atoms: C_73  and  C_74
REMARK   36  A    between atoms: C_74  and  C_75
REMARK   37  A    between atoms: C_77  and  C_83
REMARK   38  A    between atoms: C_79  and  O_81
REMARK   39  A    between atoms: O_81  and  C_82
REMARK   40  A    between atoms: O_90  and  C_91
REMARK                            x       y       z     vdW  Elec       q    Type
REMARK                         _______ _______ _______ _____ _____    ______ ____
ROOT
ATOM      1  C   UNL     1     147.002 170.260 189.723  0.00  0.00    +0.113 C 
ATOM      2  O   UNL     1     145.996 171.059 190.404  0.00  0.00    -0.458 OA
ATOM      3  C   UNL     1     146.460 172.126 191.111  0.00  0.00    +0.332 C 
ATOM      4  O   UNL     1     147.636 172.441 191.256  0.00  0.00    -0.246 OA
ATOM      5  C   UNL     1     145.385 172.918 191.728  0.00  0.00    +0.023 C 
ATOM      6  C   UNL     1     144.120 172.958 191.286  0.00  0.00    -0.052 C 
ATOM      7  C   UNL     1     143.085 173.845 191.809  0.00  0.00    -0.054 C 
ATOM      8  C   UNL     1     143.339 175.143 192.075  0.00  0.00    -0.079 C 
ATOM      9  C   UNL     1     142.312 176.199 192.401  0.00  0.00    -0.008 C 
ATOM     10  C   UNL     1     142.674 177.616 191.915  0.00  0.00    +0.061 C 
ATOM     11  C   UNL     1     143.205 177.782 190.485  0.00  0.00    +0.003 C 
ATOM     12  C   UNL     1     142.243 177.536 189.307  0.00  0.00    +0.080 C 
ATOM     13  O   UNL     1     142.893 178.180 188.182  0.00  0.00    -0.369 OA
ATOM     14  C   UNL     1     142.573 177.677 186.875  0.00  0.00    +0.065 C 
ATOM     15  C   UNL     1     141.117 178.013 186.491  0.00  0.00    +0.000 C 
ATOM     16  C   UNL     1     140.758 177.645 185.036  0.00  0.00    +0.066 C 
ATOM     17  C   UNL     1     139.253 177.951 184.762  0.00  0.00    +0.009 C 
ATOM     18  C   UNL     1     138.463 176.705 184.284  0.00  0.00    +0.063 C 
ATOM     19  C   UNL     1     138.351 175.604 185.362  0.00  0.00    -0.000 C 
ATOM     20  C   UNL     1     137.375 174.490 184.933  0.00  0.00    +0.064 C 
ATOM     21  C   UNL     1     137.049 173.432 186.033  0.00  0.00    +0.020 C 
ATOM     22  C   UNL     1     138.307 172.695 186.593  0.00  0.00    +0.113 C 
ATOM     23  O   UNL     1     138.937 172.014 185.476  0.00  0.00    -0.458 OA
ATOM     24  C   UNL     1     140.284 172.157 185.361  0.00  0.00    +0.332 C 
ATOM     25  O   UNL     1     141.021 172.703 186.164  0.00  0.00    -0.246 OA
ATOM     26  C   UNL     1     140.733 171.506 184.109  0.00  0.00    +0.023 C 
ATOM     27  C   UNL     1     142.031 171.557 183.774  0.00  0.00    -0.052 C 
ATOM     28  C   UNL     1     142.637 170.945 182.599  0.00  0.00    -0.054 C 
ATOM     29  C   UNL     1     142.450 169.640 182.310  0.00  0.00    -0.079 C 
ATOM     30  C   UNL     1     143.042 168.863 181.167  0.00  0.00    -0.008 C 
ATOM     31  C   UNL     1     144.195 167.907 181.556  0.00  0.00    +0.061 C 
ATOM     32  C   UNL     1     143.699 166.586 182.179  0.00  0.00    +0.003 C 
ATOM     33  C   UNL     1     144.809 165.520 182.322  0.00  0.00    +0.080 C 
ATOM     34  O   UNL     1     145.621 165.752 183.486  0.00  0.00    -0.369 OA
ATOM     35  C   UNL     1     145.294 164.992 184.670  0.00  0.00    +0.065 C 
ATOM     36  C   UNL     1     146.368 165.364 185.708  0.00  0.00    +0.000 C 
ATOM     37  C   UNL     1     146.274 164.782 187.139  0.00  0.00    +0.066 C 
ATOM     38  C   UNL     1     144.983 165.246 187.881  0.00  0.00    +0.009 C 
ATOM     39  C   UNL     1     145.239 165.773 189.321  0.00  0.00    +0.063 C 
ATOM     40  C   UNL     1     146.392 166.785 189.428  0.00  0.00    -0.000 C 
ATOM     41  C   UNL     1     146.144 167.858 190.505  0.00  0.00    +0.064 C 
ATOM     42  C   UNL     1     147.280 168.924 190.500  0.00  0.00    +0.020 C 
ATOM     43  C   UNL     1     145.272 163.486 184.373  0.00  0.00    -0.008 C 
ATOM     44  C   UNL     1     144.437 163.185 183.174  0.00  0.00    -0.083 C 
ATOM     45  C   UNL     1     144.236 164.125 182.247  0.00  0.00    -0.059 C 
ATOM     46  C   UNL     1     142.951 176.187 186.811  0.00  0.00    -0.008 C 
ATOM     47  C   UNL     1     142.308 175.435 187.930  0.00  0.00    -0.083 C 
ATOM     48  C   UNL     1     141.963 176.074 189.055  0.00  0.00    -0.059 C 
ATOM     49  H   UNL     1     147.959 170.801 189.764  0.00  0.00    +0.074 HD
ATOM     50  H   UNL     1     145.723 173.557 192.537  0.00  0.00    +0.069 HD
ATOM     51  H   UNL     1     143.801 172.338 190.450  0.00  0.00    +0.062 HD
ATOM     52  H   UNL     1     144.360 175.511 191.981  0.00  0.00    +0.058 HD
ATOM     53  H   UNL     1     141.321 175.935 192.016  0.00  0.00    +0.033 HD
ATOM     54  H   UNL     1     142.197 176.237 193.493  0.00  0.00    +0.033 HD
ATOM     55  H   UNL     1     143.455 177.989 192.590  0.00  0.00    +0.060 HD
ATOM     56  H   UNL     1     144.116 177.187 190.342  0.00  0.00    +0.032 HD
ATOM     57  H   UNL     1     143.545 178.825 190.400  0.00  0.00    +0.032 HD
ATOM     58  H   UNL     1     141.297 178.064 189.474  0.00  0.00    +0.064 HD
ATOM     59  H   UNL     1     143.239 178.216 186.188  0.00  0.00    +0.060 HD
ATOM     60  H   UNL     1     140.979 179.094 186.636  0.00  0.00    +0.032 HD
ATOM     61  H   UNL     1     140.415 177.524 187.178  0.00  0.00    +0.032 HD
ATOM     62  H   UNL     1     140.957 176.579 184.893  0.00  0.00    +0.060 HD
ATOM     63  H   UNL     1     138.778 178.262 185.704  0.00  0.00    +0.035 HD
ATOM     64  H   UNL     1     137.449 177.022 184.011  0.00  0.00    +0.060 HD
ATOM     65  H   UNL     1     139.342 175.161 185.517  0.00  0.00    +0.032 HD
ATOM     66  H   UNL     1     138.019 176.053 186.306  0.00  0.00    +0.032 HD
ATOM     67  H   UNL     1     136.428 174.953 184.627  0.00  0.00    +0.060 HD
ATOM     68  H   UNL     1     136.421 172.681 185.536  0.00  0.00    +0.036 HD
ATOM     69  H   UNL     1     138.970 173.467 186.998  0.00  0.00    +0.074 HD
ATOM     70  H   UNL     1     139.989 171.009 183.501  0.00  0.00    +0.069 HD
ATOM     71  H   UNL     1     142.725 172.100 184.417  0.00  0.00    +0.062 HD
ATOM     72  H   UNL     1     141.793 169.051 182.948  0.00  0.00    +0.058 HD
ATOM     73  H   UNL     1     142.238 168.288 180.686  0.00  0.00    +0.033 HD
ATOM     74  H   UNL     1     143.384 169.540 180.376  0.00  0.00    +0.033 HD
ATOM     75  H   UNL     1     144.897 168.398 182.240  0.00  0.00    +0.060 HD
ATOM     76  H   UNL     1     142.911 166.190 181.524  0.00  0.00    +0.032 HD
ATOM     77  H   UNL     1     143.244 166.792 183.155  0.00  0.00    +0.032 HD
ATOM     78  H   UNL     1     145.499 165.596 181.474  0.00  0.00    +0.064 HD
ATOM     79  H   UNL     1     144.310 165.327 185.015  0.00  0.00    +0.060 HD
ATOM     80  H   UNL     1     146.390 166.461 185.789  0.00  0.00    +0.032 HD
ATOM     81  H   UNL     1     147.347 165.107 185.284  0.00  0.00    +0.032 HD
ATOM     82  H   UNL     1     147.144 165.181 187.669  0.00  0.00    +0.060 HD
ATOM     83  H   UNL     1     144.583 166.110 187.338  0.00  0.00    +0.035 HD
ATOM     84  H   UNL     1     144.307 166.252 189.650  0.00  0.00    +0.060 HD
ATOM     85  H   UNL     1     147.314 166.246 189.687  0.00  0.00    +0.032 HD
ATOM     86  H   UNL     1     146.559 167.259 188.465  0.00  0.00    +0.032 HD
ATOM     87  H   UNL     1     145.175 168.343 190.359  0.00  0.00    +0.060 HD
ATOM     88  H   UNL     1     148.161 168.467 190.027  0.00  0.00    +0.036 HD
ATOM     89  H   UNL     1     144.869 162.932 185.227  0.00  0.00    +0.033 HD
ATOM     90  H   UNL     1     146.284 163.111 184.178  0.00  0.00    +0.033 HD
ATOM     91  H   UNL     1     144.038 162.182 183.051  0.00  0.00    +0.057 HD
ATOM     92  H   UNL     1     143.655 163.879 181.360  0.00  0.00    +0.059 HD
ATOM     93  H   UNL     1     144.037 176.075 186.917  0.00  0.00    +0.033 HD
ATOM     94  H   UNL     1     142.676 175.745 185.851  0.00  0.00    +0.033 HD
ATOM     95  H   UNL     1     142.113 174.374 187.808  0.00  0.00    +0.057 HD
ATOM     96  H   UNL     1     141.443 175.518 189.827  0.00  0.00    +0.059 HD
ENDROOT
BRANCH  28  97
ATOM     97  C   UNL     1     143.547 171.875 181.838  0.00  0.00    -0.040 C 
ATOM     98  H   UNL     1     142.979 172.477 181.119  0.00  0.00    +0.028 HD
ATOM     99  H   UNL     1     144.296 171.298 181.284  0.00  0.00    +0.028 HD
ATOM    100  H   UNL     1     144.078 172.582 182.481  0.00  0.00    +0.028 HD
ENDBRANCH  28  97
BRANCH  21 101
ATOM    101  C   UNL     1     136.214 174.079 187.143  0.00  0.00    -0.057 C 
ATOM    102  H   UNL     1     136.622 173.861 188.136  0.00  0.00    +0.023 HD
ATOM    103  H   UNL     1     135.179 173.725 187.119  0.00  0.00    +0.023 HD
ATOM    104  H   UNL     1     136.176 175.168 187.024  0.00  0.00    +0.023 HD
ENDBRANCH  21 101
BRANCH  42 105
ATOM    105  C   UNL     1     147.732 169.266 191.940  0.00  0.00    -0.057 C 
ATOM    106  H   UNL     1     148.726 168.857 192.149  0.00  0.00    +0.023 HD
ATOM    107  H   UNL     1     147.760 170.349 192.107  0.00  0.00    +0.023 HD
ATOM    108  H   UNL     1     147.055 168.825 192.680  0.00  0.00    +0.023 HD
ENDBRANCH  42 105
BRANCH  17 109
ATOM    109  C   UNL     1     139.041 179.113 183.780  0.00  0.00    -0.058 C 
ATOM    110  H   UNL     1     139.121 180.088 184.271  0.00  0.00    +0.023 HD
ATOM    111  H   UNL     1     139.794 179.084 182.984  0.00  0.00    +0.023 HD
ATOM    112  H   UNL     1     138.059 179.045 183.300  0.00  0.00    +0.023 HD
ENDBRANCH  17 109
BRANCH  38 113
ATOM    113  C   UNL     1     143.881 164.173 187.912  0.00  0.00    -0.058 C 
ATOM    114  H   UNL     1     143.394 164.050 186.938  0.00  0.00    +0.023 HD
ATOM    115  H   UNL     1     143.107 164.418 188.645  0.00  0.00    +0.023 HD
ATOM    116  H   UNL     1     144.299 163.198 188.188  0.00  0.00    +0.023 HD
ENDBRANCH  38 113
BRANCH   7 117
ATOM    117  C   UNL     1     141.727 173.209 191.911  0.00  0.00    -0.040 C 
ATOM    118  H   UNL     1     140.946 173.974 191.988  0.00  0.00    +0.028 HD
ATOM    119  H   UNL     1     141.675 172.568 192.793  0.00  0.00    +0.028 HD
ATOM    120  H   UNL     1     141.480 172.604 191.035  0.00  0.00    +0.028 HD
ENDBRANCH   7 117
BRANCH   1 121
ATOM    121  C   UNL     1     146.678 170.239 188.183  0.00  0.00    +0.020 C 
ATOM    122  H   UNL     1     147.058 171.208 187.821  0.00  0.00    +0.036 HD
BRANCH 121 123
ATOM    123  C   UNL     1     147.520 169.137 187.514  0.00  0.00    -0.057 C 
ATOM    124  H   UNL     1     147.309 168.159 187.952  0.00  0.00    +0.023 HD
ATOM    125  H   UNL     1     148.592 169.322 187.603  0.00  0.00    +0.023 HD
ATOM    126  H   UNL     1     147.286 169.028 186.450  0.00  0.00    +0.023 HD
ENDBRANCH 121 123
BRANCH 121 127
ATOM    127  C   UNL     1     145.167 170.224 187.768  0.00  0.00    +0.064 C 
ATOM    128  H   UNL     1     145.029 169.462 187.007  0.00  0.00    +0.060 HD
BRANCH 127 129
ATOM    129  C   UNL     1     144.510 171.540 187.232  0.00  0.00    -0.017 C 
ATOM    130  H   UNL     1     143.995 171.299 186.292  0.00  0.00    +0.032 HD
BRANCH 129 131
ATOM    131  C   UNL     1     143.470 172.199 188.136  0.00  0.00    -0.060 C 
ATOM    132  H   UNL     1     142.639 171.518 188.338  0.00  0.00    +0.023 HD
ATOM    133  H   UNL     1     143.908 172.546 189.075  0.00  0.00    +0.023 HD
ATOM    134  H   UNL     1     143.025 173.073 187.642  0.00  0.00    +0.023 HD
ENDBRANCH 129 131
BRANCH 129 135
ATOM    135  C   UNL     1     145.594 172.611 186.904  0.00  0.00    -0.046 C 
ATOM    136  H   UNL     1     146.478 172.443 187.530  0.00  0.00    +0.027 HD
ATOM    137  H   UNL     1     145.217 173.595 187.193  0.00  0.00    +0.027 HD
BRANCH 135 138
ATOM    138  C   UNL     1     145.995 172.677 185.430  0.00  0.00    -0.026 C 
ATOM    139  H   UNL     1     145.427 171.930 184.868  0.00  0.00    +0.029 HD
ATOM    140  H   UNL     1     147.046 172.398 185.320  0.00  0.00    +0.029 HD
BRANCH 138 143
ATOM    141  C   UNL     1     146.332 175.381 182.879  0.00  0.00    +0.059 C 
ATOM    142  O   UNL     1     146.604 174.202 183.652  0.00  0.00    -0.373 OA
ATOM    143  C   UNL     1     145.771 174.065 184.807  0.00  0.00    +0.061 C 
ATOM    144  C   UNL     1     146.087 175.188 185.796  0.00  0.00    -0.000 C 
ATOM    145  C   UNL     1     146.481 176.498 185.103  0.00  0.00    +0.063 C 
ATOM    146  C   UNL     1     145.845 176.560 183.721  0.00  0.00    -0.000 C 
ATOM    147  H   UNL     1     147.292 175.658 182.425  0.00  0.00    +0.059 HD
ATOM    148  H   UNL     1     144.729 174.143 184.479  0.00  0.00    +0.060 HD
ATOM    149  H   UNL     1     145.228 175.336 186.456  0.00  0.00    +0.032 HD
ATOM    150  H   UNL     1     146.920 174.906 186.451  0.00  0.00    +0.032 HD
ATOM    151  H   UNL     1     147.575 176.532 185.014  0.00  0.00    +0.060 HD
ATOM    152  H   UNL     1     144.752 176.549 183.832  0.00  0.00    +0.032 HD
ATOM    153  H   UNL     1     146.072 177.500 183.205  0.00  0.00    +0.032 HD
BRANCH 141 154
ATOM    154  C   UNL     1     145.359 175.055 181.751  0.00  0.00    -0.039 C 
ATOM    155  H   UNL     1     145.196 175.921 181.104  0.00  0.00    +0.025 HD
ATOM    156  H   UNL     1     145.733 174.228 181.138  0.00  0.00    +0.025 HD
ATOM    157  H   UNL     1     144.382 174.774 182.154  0.00  0.00    +0.025 HD
ENDBRANCH 141 154
BRANCH 145 158
ATOM    158  O   UNL     1     146.043 177.572 185.941  0.00  0.00    -0.380 OA
BRANCH 158 159
ATOM    159  C   UNL     1     146.081 178.844 185.306  0.00  0.00    +0.037 C 
ATOM    160  H   UNL     1     145.434 178.803 184.425  0.00  0.00    +0.052 HD
ATOM    161  H   UNL     1     147.096 179.077 184.969  0.00  0.00    +0.052 HD
ATOM    162  H   UNL     1     145.715 179.632 185.971  0.00  0.00    +0.052 HD
ENDBRANCH 158 159
ENDBRANCH 145 158
ENDBRANCH 138 143
ENDBRANCH 135 138
ENDBRANCH 129 135
ENDBRANCH 127 129
BRANCH 127 163
ATOM    163  O   UNL     1     144.336 169.816 188.863  0.00  0.00    -0.391 OA
ATOM    164  H   UNL     1     143.437 169.644 188.535  0.00  0.00    +0.210 HD
ENDBRANCH 127 163
ENDBRANCH 121 127
ENDBRANCH   1 121
BRANCH  41 165
ATOM    165  O   UNL     1     146.085 167.199 191.774  0.00  0.00    -0.391 OA
ATOM    166  H   UNL     1     145.441 167.663 192.347  0.00  0.00    +0.210 HD
ENDBRANCH  41 165
BRANCH  39 167
ATOM    167  O   UNL     1     145.495 164.724 190.254  0.00  0.00    -0.391 OA
ATOM    168  H   UNL     1     146.448 164.732 190.464  0.00  0.00    +0.210 HD
ENDBRANCH  39 167
BRANCH  31 169
ATOM    169  O   UNL     1     144.909 167.605 180.348  0.00  0.00    -0.391 OA
ATOM    170  H   UNL     1     145.697 168.176 180.328  0.00  0.00    +0.210 HD
ENDBRANCH  31 169
BRANCH  22 171
ATOM    171  C   UNL     1     138.005 171.664 187.738  0.00  0.00    +0.020 C 
ATOM    172  H   UNL     1     136.997 171.887 188.103  0.00  0.00    +0.036 HD
BRANCH 171 173
ATOM    173  C   UNL     1     138.026 170.220 187.228  0.00  0.00    -0.057 C 
ATOM    174  H   UNL     1     137.151 170.010 186.612  0.00  0.00    +0.023 HD
ATOM    175  H   UNL     1     138.037 169.500 188.052  0.00  0.00    +0.023 HD
ATOM    176  H   UNL     1     138.917 170.016 186.629  0.00  0.00    +0.023 HD
ENDBRANCH 171 173
BRANCH 171 177
ATOM    177  C   UNL     1     138.968 171.862 188.939  0.00  0.00    +0.064 C 
ATOM    178  H   UNL     1     139.676 171.027 188.966  0.00  0.00    +0.060 HD
BRANCH 177 179
ATOM    179  O   UNL     1     139.716 173.056 188.702  0.00  0.00    -0.391 OA
ATOM    180  H   UNL     1     139.377 173.432 187.858  0.00  0.00    +0.210 HD
ENDBRANCH 177 179
BRANCH 177 181
ATOM    181  C   UNL     1     138.331 171.947 190.355  0.00  0.00    -0.017 C 
ATOM    182  H   UNL     1     138.412 172.987 190.698  0.00  0.00    +0.032 HD
BRANCH 181 183
ATOM    183  C   UNL     1     136.829 171.624 190.254  0.00  0.00    -0.060 C 
ATOM    184  H   UNL     1     136.268 172.057 191.089  0.00  0.00    +0.023 HD
ATOM    185  H   UNL     1     136.396 172.002 189.323  0.00  0.00    +0.023 HD
ATOM    186  H   UNL     1     136.659 170.546 190.265  0.00  0.00    +0.023 HD
ENDBRANCH 181 183
BRANCH 181 187
ATOM    187  C   UNL     1     138.999 171.030 191.404  0.00  0.00    -0.046 C 
ATOM    188  H   UNL     1     138.256 170.688 192.133  0.00  0.00    +0.027 HD
ATOM    189  H   UNL     1     139.751 171.600 191.964  0.00  0.00    +0.027 HD
BRANCH 187 190
ATOM    190  C   UNL     1     139.645 169.784 190.773  0.00  0.00    -0.026 C 
ATOM    191  H   UNL     1     139.077 169.491 189.887  0.00  0.00    +0.029 HD
ATOM    192  H   UNL     1     139.577 168.948 191.479  0.00  0.00    +0.029 HD
BRANCH 190 193
ATOM    193  C   UNL     1     141.120 170.001 190.390  0.00  0.00    +0.061 C 
ATOM    194  O   UNL     1     141.479 169.330 189.179  0.00  0.00    -0.373 OA
ATOM    195  C   UNL     1     141.519 167.903 189.270  0.00  0.00    +0.059 C 
ATOM    196  C   UNL     1     142.514 167.450 190.337  0.00  0.00    -0.000 C 
ATOM    197  C   UNL     1     142.199 168.099 191.685  0.00  0.00    +0.063 C 
ATOM    198  C   UNL     1     142.084 169.614 191.513  0.00  0.00    -0.000 C 
ATOM    199  H   UNL     1     141.253 171.071 190.194  0.00  0.00    +0.060 HD
ATOM    200  H   UNL     1     140.516 167.525 189.498  0.00  0.00    +0.059 HD
ATOM    201  H   UNL     1     143.536 167.723 190.045  0.00  0.00    +0.032 HD
ATOM    202  H   UNL     1     142.500 166.358 190.420  0.00  0.00    +0.032 HD
ATOM    203  H   UNL     1     141.253 167.709 192.081  0.00  0.00    +0.060 HD
ATOM    204  H   UNL     1     143.082 170.009 191.279  0.00  0.00    +0.032 HD
ATOM    205  H   UNL     1     141.797 170.082 192.463  0.00  0.00    +0.032 HD
BRANCH 195 206
ATOM    206  C   UNL     1     141.917 167.372 187.897  0.00  0.00    -0.039 C 
ATOM    207  H   UNL     1     141.076 166.845 187.434  0.00  0.00    +0.025 HD
ATOM    208  H   UNL     1     142.765 166.683 187.971  0.00  0.00    +0.025 HD
ATOM    209  H   UNL     1     142.186 168.192 187.222  0.00  0.00    +0.025 HD
ENDBRANCH 195 206
BRANCH 197 210
ATOM    210  O   UNL     1     143.238 167.857 192.642  0.00  0.00    -0.380 OA
BRANCH 210 211
ATOM    211  C   UNL     1     142.911 166.864 193.606  0.00  0.00    +0.037 C 
ATOM    212  H   UNL     1     142.081 166.270 193.212  0.00  0.00    +0.052 HD
ATOM    213  H   UNL     1     142.586 167.322 194.544  0.00  0.00    +0.052 HD
ATOM    214  H   UNL     1     143.762 166.199 193.782  0.00  0.00    +0.052 HD
ENDBRANCH 210 211
ENDBRANCH 197 210
ENDBRANCH 190 193
ENDBRANCH 187 190
ENDBRANCH 181 187
ENDBRANCH 177 181
ENDBRANCH 171 177
ENDBRANCH  22 171
BRANCH  20 215
ATOM    215  O   UNL     1     137.900 173.870 183.750  0.00  0.00    -0.391 OA
ATOM    216  H   UNL     1     137.401 174.219 182.990  0.00  0.00    +0.210 HD
ENDBRANCH  20 215
BRANCH  18 217
ATOM    217  O   UNL     1     139.065 176.175 183.101  0.00  0.00    -0.391 OA
ATOM    218  H   UNL     1     139.295 175.244 183.300  0.00  0.00    +0.210 HD
ENDBRANCH  18 217
BRANCH  10 219
ATOM    219  O   UNL     1     141.537 178.462 192.111  0.00  0.00    -0.391 OA
ATOM    220  H   UNL     1     140.836 178.150 191.510  0.00  0.00    +0.210 HD
ENDBRANCH  10 219
BRANCH  37 221
ATOM    221  O   UNL     1     146.384 163.359 187.192  0.00  0.00    -0.379 OA
BRANCH 221 222
ATOM    222  C   UNL     1     147.705 162.879 187.406  0.00  0.00    +0.037 C 
ATOM    223  H   UNL     1     148.396 163.555 186.895  0.00  0.00    +0.052 HD
ATOM    224  H   UNL     1     147.956 162.879 188.469  0.00  0.00    +0.052 HD
ATOM    225  H   UNL     1     147.826 161.876 186.988  0.00  0.00    +0.052 HD
ENDBRANCH 221 222
ENDBRANCH  37 221
BRANCH  16 226
ATOM    226  O   UNL     1     141.625 178.419 184.192  0.00  0.00    -0.379 OA
BRANCH 226 227
ATOM    227  C   UNL     1     142.312 177.626 183.232  0.00  0.00    +0.037 C 
ATOM    228  H   UNL     1     142.789 176.755 183.694  0.00  0.00    +0.052 HD
ATOM    229  H   UNL     1     143.063 178.238 182.720  0.00  0.00    +0.052 HD
ATOM    230  H   UNL     1     141.586 177.271 182.493  0.00  0.00    +0.052 HD
ENDBRANCH 226 227
ENDBRANCH  16 226
TORSDOF 40
ENDMDL
MODEL 8
REMARK VINA RESULT:      -4.4     13.361     20.377
REMARK  Name = Swinholide A_conf1
REMARK  40 active torsions:
REMARK  status: ('A' for Active; 'I' for Inactive)
REMARK    1  A    between atoms: C_1  and  C_2
REMARK    2  A    between atoms: C_4  and  C_10
REMARK    3  A    between atoms: C_6  and  O_8
REMARK    4  A    between atoms: O_8  and  C_9
REMARK    5  A    between atoms: C_10  and  C_11
REMARK    6  A    between atoms: C_11  and  C_12
REMARK    7  A    between atoms: C_12  and  C_13
REMARK    8  A    between atoms: C_12  and  C_98
REMARK    9  A    between atoms: C_13  and  O_14
REMARK   10  A    between atoms: C_13  and  C_15
REMARK   11  A    between atoms: C_15  and  C_16
REMARK   12  A    between atoms: C_15  and  C_97
REMARK   13  A    between atoms: C_22  and  C_96
REMARK   14  A    between atoms: C_25  and  O_95
REMARK   15  A    between atoms: C_31  and  O_90
REMARK   16  A    between atoms: C_32  and  C_89
REMARK   17  A    between atoms: C_33  and  O_88
REMARK   18  A    between atoms: C_35  and  O_87
REMARK   19  A    between atoms: C_36  and  C_86
REMARK   20  A    between atoms: C_37  and  C_69
REMARK   21  A    between atoms: C_43  and  C_68
REMARK   22  A    between atoms: C_46  and  O_67
REMARK   23  A    between atoms: C_52  and  O_62
REMARK   24  A    between atoms: C_53  and  C_61
REMARK   25  A    between atoms: C_54  and  O_60
REMARK   26  A    between atoms: C_56  and  O_59
REMARK   27  A    between atoms: C_57  and  C_58
REMARK   28  A    between atoms: O_62  and  C_63
REMARK   29  A    between atoms: C_69  and  C_70
REMARK   30  A    between atoms: C_69  and  C_85
REMARK   31  A    between atoms: C_70  and  O_71
REMARK   32  A    between atoms: C_70  and  C_72
REMARK   33  A    between atoms: C_72  and  C_73
REMARK   34  A    between atoms: C_72  and  C_84
REMARK   35  A    between atoms: C_73  and  C_74
REMARK   36  A    between atoms: C_74  and  C_75
REMARK   37  A    between atoms: C_77  and  C_83
REMARK   38  A    between atoms: C_79  and  O_81
REMARK   39  A    between atoms: O_81  and  C_82
REMARK   40  A    between atoms: O_90  and  C_91
REMARK                            x       y       z     vdW  Elec       q    Type
REMARK                         _______ _______ _______ _____ _____    ______ ____
ROOT
ATOM      1  C   UNL     1     132.114 175.960 195.539  0.00  0.00    +0.113 C 
ATOM      2  O   UNL     1     132.596 175.251 194.365  0.00  0.00    -0.458 OA
ATOM      3  C   UNL     1     131.896 175.456 193.215  0.00  0.00    +0.332 C 
ATOM      4  O   UNL     1     130.885 176.140 193.096  0.00  0.00    -0.246 OA
ATOM      5  C   UNL     1     132.471 174.752 192.059  0.00  0.00    +0.023 C 
ATOM      6  C   UNL     1     133.755 174.380 191.956  0.00  0.00    -0.052 C 
ATOM      7  C   UNL     1     134.359 173.805 190.757  0.00  0.00    -0.054 C 
ATOM      8  C   UNL     1     134.104 174.306 189.531  0.00  0.00    -0.079 C 
ATOM      9  C   UNL     1     134.831 173.949 188.259  0.00  0.00    -0.008 C 
ATOM     10  C   UNL     1     134.936 175.097 187.236  0.00  0.00    +0.061 C 
ATOM     11  C   UNL     1     135.352 176.486 187.741  0.00  0.00    +0.003 C 
ATOM     12  C   UNL     1     136.796 176.688 188.237  0.00  0.00    +0.080 C 
ATOM     13  O   UNL     1     136.977 178.126 188.215  0.00  0.00    -0.369 OA
ATOM     14  C   UNL     1     137.956 178.670 189.115  0.00  0.00    +0.065 C 
ATOM     15  C   UNL     1     139.385 178.276 188.686  0.00  0.00    +0.000 C 
ATOM     16  C   UNL     1     140.493 178.961 189.514  0.00  0.00    +0.066 C 
ATOM     17  C   UNL     1     141.895 178.448 189.060  0.00  0.00    +0.009 C 
ATOM     18  C   UNL     1     142.711 177.823 190.221  0.00  0.00    +0.063 C 
ATOM     19  C   UNL     1     142.085 176.524 190.776  0.00  0.00    -0.000 C 
ATOM     20  C   UNL     1     143.034 175.815 191.764  0.00  0.00    +0.064 C 
ATOM     21  C   UNL     1     142.572 174.400 192.231  0.00  0.00    +0.020 C 
ATOM     22  C   UNL     1     141.168 174.388 192.916  0.00  0.00    +0.113 C 
ATOM     23  O   UNL     1     141.254 175.249 194.082  0.00  0.00    -0.458 OA
ATOM     24  C   UNL     1     140.243 176.142 194.251  0.00  0.00    +0.332 C 
ATOM     25  O   UNL     1     139.222 176.209 193.587  0.00  0.00    -0.246 OA
ATOM     26  C   UNL     1     140.555 177.011 195.409  0.00  0.00    +0.023 C 
ATOM     27  C   UNL     1     139.704 177.994 195.737  0.00  0.00    -0.052 C 
ATOM     28  C   UNL     1     139.848 178.913 196.860  0.00  0.00    -0.054 C 
ATOM     29  C   UNL     1     140.062 178.463 198.113  0.00  0.00    -0.079 C 
ATOM     30  C   UNL     1     140.185 179.281 199.369  0.00  0.00    -0.008 C 
ATOM     31  C   UNL     1     138.948 179.240 200.298  0.00  0.00    +0.061 C 
ATOM     32  C   UNL     1     138.881 177.959 201.156  0.00  0.00    +0.003 C 
ATOM     33  C   UNL     1     137.813 178.024 202.271  0.00  0.00    +0.080 C 
ATOM     34  O   UNL     1     136.497 177.742 201.764  0.00  0.00    -0.369 OA
ATOM     35  C   UNL     1     136.011 176.391 201.929  0.00  0.00    +0.065 C 
ATOM     36  C   UNL     1     134.567 176.405 201.394  0.00  0.00    +0.000 C 
ATOM     37  C   UNL     1     133.764 175.084 201.347  0.00  0.00    +0.066 C 
ATOM     38  C   UNL     1     134.414 174.031 200.397  0.00  0.00    +0.009 C 
ATOM     39  C   UNL     1     133.412 173.367 199.412  0.00  0.00    +0.063 C 
ATOM     40  C   UNL     1     132.498 174.360 198.675  0.00  0.00    -0.000 C 
ATOM     41  C   UNL     1     132.159 173.906 197.242  0.00  0.00    +0.064 C 
ATOM     42  C   UNL     1     131.329 174.994 196.496  0.00  0.00    +0.020 C 
ATOM     43  C   UNL     1     136.079 175.954 203.399  0.00  0.00    -0.008 C 
ATOM     44  C   UNL     1     137.429 176.219 203.978  0.00  0.00    -0.083 C 
ATOM     45  C   UNL     1     138.207 177.167 203.451  0.00  0.00    -0.059 C 
ATOM     46  C   UNL     1     137.567 178.295 190.556  0.00  0.00    -0.008 C 
ATOM     47  C   UNL     1     137.375 176.820 190.679  0.00  0.00    -0.083 C 
ATOM     48  C   UNL     1     137.050 176.093 189.602  0.00  0.00    -0.059 C 
ATOM     49  H   UNL     1     131.360 176.692 195.215  0.00  0.00    +0.074 HD
ATOM     50  H   UNL     1     131.777 174.631 191.233  0.00  0.00    +0.069 HD
ATOM     51  H   UNL     1     134.449 174.538 192.779  0.00  0.00    +0.062 HD
ATOM     52  H   UNL     1     133.363 175.098 189.428  0.00  0.00    +0.058 HD
ATOM     53  H   UNL     1     135.836 173.560 188.458  0.00  0.00    +0.033 HD
ATOM     54  H   UNL     1     134.292 173.120 187.779  0.00  0.00    +0.033 HD
ATOM     55  H   UNL     1     133.941 175.208 186.785  0.00  0.00    +0.060 HD
ATOM     56  H   UNL     1     134.650 176.843 188.505  0.00  0.00    +0.032 HD
ATOM     57  H   UNL     1     135.210 177.177 186.897  0.00  0.00    +0.032 HD
ATOM     58  H   UNL     1     137.507 176.266 187.518  0.00  0.00    +0.064 HD
ATOM     59  H   UNL     1     137.861 179.759 189.021  0.00  0.00    +0.060 HD
ATOM     60  H   UNL     1     139.499 178.553 187.628  0.00  0.00    +0.032 HD
ATOM     61  H   UNL     1     139.513 177.187 188.728  0.00  0.00    +0.032 HD
ATOM     62  H   UNL     1     140.328 178.722 190.570  0.00  0.00    +0.060 HD
ATOM     63  H   UNL     1     141.755 177.642 188.326  0.00  0.00    +0.035 HD
ATOM     64  H   UNL     1     143.716 177.587 189.850  0.00  0.00    +0.060 HD
ATOM     65  H   UNL     1     141.157 176.777 191.303  0.00  0.00    +0.032 HD
ATOM     66  H   UNL     1     141.840 175.855 189.943  0.00  0.00    +0.032 HD
ATOM     67  H   UNL     1     144.016 175.704 191.286  0.00  0.00    +0.060 HD
ATOM     68  H   UNL     1     143.308 174.089 192.983  0.00  0.00    +0.036 HD
ATOM     69  H   UNL     1     140.459 174.794 192.187  0.00  0.00    +0.074 HD
ATOM     70  H   UNL     1     141.470 176.821 195.952  0.00  0.00    +0.069 HD
ATOM     71  H   UNL     1     138.812 178.151 195.129  0.00  0.00    +0.062 HD
ATOM     72  H   UNL     1     140.174 177.392 198.274  0.00  0.00    +0.058 HD
ATOM     73  H   UNL     1     141.069 178.934 199.923  0.00  0.00    +0.033 HD
ATOM     74  H   UNL     1     140.424 180.323 199.129  0.00  0.00    +0.033 HD
ATOM     75  H   UNL     1     138.022 179.349 199.722  0.00  0.00    +0.060 HD
ATOM     76  H   UNL     1     139.867 177.821 201.619  0.00  0.00    +0.032 HD
ATOM     77  H   UNL     1     138.697 177.096 200.505  0.00  0.00    +0.032 HD
ATOM     78  H   UNL     1     137.754 179.046 202.661  0.00  0.00    +0.064 HD
ATOM     79  H   UNL     1     136.634 175.739 201.308  0.00  0.00    +0.060 HD
ATOM     80  H   UNL     1     134.591 176.823 200.376  0.00  0.00    +0.032 HD
ATOM     81  H   UNL     1     134.002 177.145 201.975  0.00  0.00    +0.032 HD
ATOM     82  H   UNL     1     132.783 175.357 200.945  0.00  0.00    +0.060 HD
ATOM     83  H   UNL     1     135.123 174.562 199.753  0.00  0.00    +0.035 HD
ATOM     84  H   UNL     1     134.012 172.816 198.677  0.00  0.00    +0.060 HD
ATOM     85  H   UNL     1     131.558 174.460 199.234  0.00  0.00    +0.032 HD
ATOM     86  H   UNL     1     132.962 175.342 198.652  0.00  0.00    +0.032 HD
ATOM     87  H   UNL     1     133.068 173.677 196.678  0.00  0.00    +0.060 HD
ATOM     88  H   UNL     1     130.855 175.629 197.258  0.00  0.00    +0.036 HD
ATOM     89  H   UNL     1     135.864 174.884 203.492  0.00  0.00    +0.033 HD
ATOM     90  H   UNL     1     135.344 176.498 204.004  0.00  0.00    +0.033 HD
ATOM     91  H   UNL     1     137.742 175.660 204.855  0.00  0.00    +0.057 HD
ATOM     92  H   UNL     1     139.173 177.374 203.907  0.00  0.00    +0.059 HD
ATOM     93  H   UNL     1     136.617 178.776 190.820  0.00  0.00    +0.033 HD
ATOM     94  H   UNL     1     138.313 178.641 191.275  0.00  0.00    +0.033 HD
ATOM     95  H   UNL     1     137.517 176.349 191.648  0.00  0.00    +0.057 HD
ATOM     96  H   UNL     1     136.977 175.017 189.707  0.00  0.00    +0.059 HD
ENDROOT
BRANCH  28  97
ATOM     97  C   UNL     1     139.630 180.357 196.486  0.00  0.00    -0.040 C 
ATOM     98  H   UNL     1     139.496 180.976 197.381  0.00  0.00    +0.028 HD
ATOM     99  H   UNL     1     138.731 180.452 195.867  0.00  0.00    +0.028 HD
ATOM    100  H   UNL     1     140.465 180.792 195.932  0.00  0.00    +0.028 HD
ENDBRANCH  28  97
BRANCH  21 101
ATOM    101  C   UNL     1     142.653 173.416 191.059  0.00  0.00    -0.057 C 
ATOM    102  H   UNL     1     141.789 172.744 191.034  0.00  0.00    +0.023 HD
ATOM    103  H   UNL     1     143.557 172.800 191.120  0.00  0.00    +0.023 HD
ATOM    104  H   UNL     1     142.700 173.946 190.101  0.00  0.00    +0.023 HD
ENDBRANCH  21 101
BRANCH  42 105
ATOM    105  C   UNL     1     130.153 174.361 195.714  0.00  0.00    -0.057 C 
ATOM    106  H   UNL     1     130.463 174.065 194.706  0.00  0.00    +0.023 HD
ATOM    107  H   UNL     1     129.756 173.478 196.228  0.00  0.00    +0.023 HD
ATOM    108  H   UNL     1     129.334 175.077 195.587  0.00  0.00    +0.023 HD
ENDBRANCH  42 105
BRANCH  17 109
ATOM    109  C   UNL     1     142.731 179.524 188.353  0.00  0.00    -0.058 C 
ATOM    110  H   UNL     1     142.228 180.495 188.339  0.00  0.00    +0.023 HD
ATOM    111  H   UNL     1     143.692 179.659 188.863  0.00  0.00    +0.023 HD
ATOM    112  H   UNL     1     142.950 179.232 187.321  0.00  0.00    +0.023 HD
ENDBRANCH  17 109
BRANCH  38 113
ATOM    113  C   UNL     1     135.201 172.941 201.145  0.00  0.00    -0.058 C 
ATOM    114  H   UNL     1     134.988 172.939 202.220  0.00  0.00    +0.023 HD
ATOM    115  H   UNL     1     136.279 173.069 201.017  0.00  0.00    +0.023 HD
ATOM    116  H   UNL     1     134.940 171.946 200.765  0.00  0.00    +0.023 HD
ENDBRANCH  38 113
BRANCH   7 117
ATOM    117  C   UNL     1     135.348 172.708 191.036  0.00  0.00    -0.040 C 
ATOM    118  H   UNL     1     135.257 172.357 192.070  0.00  0.00    +0.028 HD
ATOM    119  H   UNL     1     136.366 173.068 190.878  0.00  0.00    +0.028 HD
ATOM    120  H   UNL     1     135.193 171.833 190.399  0.00  0.00    +0.028 HD
ENDBRANCH   7 117
BRANCH   1 121
ATOM    121  C   UNL     1     133.271 176.872 196.094  0.00  0.00    +0.020 C 
ATOM    122  H   UNL     1     133.430 177.611 195.293  0.00  0.00    +0.036 HD
BRANCH 121 123
ATOM    123  C   UNL     1     132.753 177.635 197.327  0.00  0.00    -0.057 C 
ATOM    124  H   UNL     1     133.405 177.479 198.189  0.00  0.00    +0.023 HD
ATOM    125  H   UNL     1     131.743 177.332 197.609  0.00  0.00    +0.023 HD
ATOM    126  H   UNL     1     132.746 178.718 197.168  0.00  0.00    +0.023 HD
ENDBRANCH 121 123
BRANCH 121 127
ATOM    127  C   UNL     1     134.673 176.203 196.302  0.00  0.00    +0.064 C 
ATOM    128  H   UNL     1     134.528 175.133 196.419  0.00  0.00    +0.060 HD
BRANCH 127 129
ATOM    129  C   UNL     1     135.576 176.680 197.489  0.00  0.00    -0.017 C 
ATOM    130  H   UNL     1     134.916 177.033 198.293  0.00  0.00    +0.032 HD
BRANCH 129 131
ATOM    131  C   UNL     1     136.490 175.627 198.114  0.00  0.00    -0.060 C 
ATOM    132  H   UNL     1     137.519 175.990 198.178  0.00  0.00    +0.023 HD
ATOM    133  H   UNL     1     136.138 175.318 199.101  0.00  0.00    +0.023 HD
ATOM    134  H   UNL     1     136.530 174.727 197.486  0.00  0.00    +0.023 HD
ENDBRANCH 129 131
BRANCH 129 135
ATOM    135  C   UNL     1     136.469 177.883 197.062  0.00  0.00    -0.046 C 
ATOM    136  H   UNL     1     136.488 177.957 195.969  0.00  0.00    +0.027 HD
ATOM    137  H   UNL     1     137.501 177.679 197.357  0.00  0.00    +0.027 HD
BRANCH 135 138
ATOM    138  C   UNL     1     136.062 179.223 197.675  0.00  0.00    -0.026 C 
ATOM    139  H   UNL     1     136.842 179.555 198.367  0.00  0.00    +0.029 HD
ATOM    140  H   UNL     1     135.161 179.095 198.280  0.00  0.00    +0.029 HD
BRANCH 138 143
ATOM    141  C   UNL     1     134.125 181.834 195.840  0.00  0.00    +0.059 C 
ATOM    142  O   UNL     1     134.431 180.683 196.643  0.00  0.00    -0.373 OA
ATOM    143  C   UNL     1     135.814 180.317 196.622  0.00  0.00    +0.061 C 
ATOM    144  C   UNL     1     136.194 179.848 195.217  0.00  0.00    -0.000 C 
ATOM    145  C   UNL     1     135.428 180.591 194.115  0.00  0.00    +0.063 C 
ATOM    146  C   UNL     1     135.024 181.972 194.611  0.00  0.00    -0.000 C 
ATOM    147  H   UNL     1     133.095 181.682 195.494  0.00  0.00    +0.059 HD
ATOM    148  H   UNL     1     136.399 181.204 196.887  0.00  0.00    +0.060 HD
ATOM    149  H   UNL     1     137.274 179.953 195.084  0.00  0.00    +0.032 HD
ATOM    150  H   UNL     1     135.981 178.779 195.094  0.00  0.00    +0.032 HD
ATOM    151  H   UNL     1     134.533 180.009 193.857  0.00  0.00    +0.060 HD
ATOM    152  H   UNL     1     135.932 182.547 194.841  0.00  0.00    +0.032 HD
ATOM    153  H   UNL     1     134.506 182.551 193.838  0.00  0.00    +0.032 HD
BRANCH 141 154
ATOM    154  C   UNL     1     134.149 183.094 196.698  0.00  0.00    -0.039 C 
ATOM    155  H   UNL     1     134.726 183.891 196.220  0.00  0.00    +0.025 HD
ATOM    156  H   UNL     1     133.134 183.462 196.881  0.00  0.00    +0.025 HD
ATOM    157  H   UNL     1     134.625 182.895 197.662  0.00  0.00    +0.025 HD
ENDBRANCH 141 154
BRANCH 145 158
ATOM    158  O   UNL     1     136.288 180.662 192.973  0.00  0.00    -0.380 OA
BRANCH 158 159
ATOM    159  C   UNL     1     137.656 180.871 193.301  0.00  0.00    +0.037 C 
ATOM    160  H   UNL     1     137.756 180.823 194.389  0.00  0.00    +0.052 HD
ATOM    161  H   UNL     1     137.985 181.863 192.975  0.00  0.00    +0.052 HD
ATOM    162  H   UNL     1     138.293 180.099 192.859  0.00  0.00    +0.052 HD
ENDBRANCH 158 159
ENDBRANCH 145 158
ENDBRANCH 138 143
ENDBRANCH 135 138
ENDBRANCH 129 135
ENDBRANCH 127 129
BRANCH 127 163
ATOM    163  O   UNL     1     135.492 176.346 195.134  0.00  0.00    -0.391 OA
ATOM    164  H   UNL     1     135.128 177.053 194.574  0.00  0.00    +0.210 HD
ENDBRANCH 127 163
ENDBRANCH 121 127
ENDBRANCH   1 121
BRANCH  41 165
ATOM    165  O   UNL     1     131.414 172.688 197.334  0.00  0.00    -0.391 OA
ATOM    166  H   UNL     1     131.511 172.321 198.237  0.00  0.00    +0.210 HD
ENDBRANCH  41 165
BRANCH  39 167
ATOM    167  O   UNL     1     132.577 172.399 200.045  0.00  0.00    -0.391 OA
ATOM    168  H   UNL     1     133.096 171.580 200.162  0.00  0.00    +0.210 HD
ENDBRANCH  39 167
BRANCH  31 169
ATOM    169  O   UNL     1     139.049 180.373 201.173  0.00  0.00    -0.391 OA
ATOM    170  H   UNL     1     139.169 180.030 202.076  0.00  0.00    +0.210 HD
ENDBRANCH  31 169
BRANCH  22 171
ATOM    171  C   UNL     1     140.663 172.965 193.346  0.00  0.00    +0.020 C 
ATOM    172  H   UNL     1     141.443 172.254 193.055  0.00  0.00    +0.036 HD
BRANCH 171 173
ATOM    173  C   UNL     1     140.457 172.864 194.860  0.00  0.00    -0.057 C 
ATOM    174  H   UNL     1     141.050 172.052 195.283  0.00  0.00    +0.023 HD
ATOM    175  H   UNL     1     139.409 172.682 195.114  0.00  0.00    +0.023 HD
ATOM    176  H   UNL     1     140.741 173.789 195.369  0.00  0.00    +0.023 HD
ENDBRANCH 171 173
BRANCH 171 177
ATOM    177  C   UNL     1     139.382 172.566 192.565  0.00  0.00    +0.064 C 
ATOM    178  H   UNL     1     138.874 171.761 193.107  0.00  0.00    +0.060 HD
BRANCH 177 179
ATOM    179  O   UNL     1     138.511 173.699 192.555  0.00  0.00    -0.391 OA
ATOM    180  H   UNL     1     137.752 173.470 193.137  0.00  0.00    +0.210 HD
ENDBRANCH 177 179
BRANCH 177 181
ATOM    181  C   UNL     1     139.567 172.067 191.104  0.00  0.00    -0.017 C 
ATOM    182  H   UNL     1     140.642 172.075 190.879  0.00  0.00    +0.032 HD
BRANCH 181 183
ATOM    183  C   UNL     1     139.099 170.604 191.006  0.00  0.00    -0.060 C 
ATOM    184  H   UNL     1     139.895 169.908 191.291  0.00  0.00    +0.023 HD
ATOM    185  H   UNL     1     138.235 170.412 191.648  0.00  0.00    +0.023 HD
ATOM    186  H   UNL     1     138.795 170.358 189.987  0.00  0.00    +0.023 HD
ENDBRANCH 181 183
BRANCH 181 187
ATOM    187  C   UNL     1     138.839 172.927 190.046  0.00  0.00    -0.046 C 
ATOM    188  H   UNL     1     138.052 173.522 190.522  0.00  0.00    +0.027 HD
ATOM    189  H   UNL     1     138.343 172.272 189.319  0.00  0.00    +0.027 HD
BRANCH 187 190
ATOM    190  C   UNL     1     139.787 173.898 189.321  0.00  0.00    -0.026 C 
ATOM    191  H   UNL     1     140.640 174.121 189.966  0.00  0.00    +0.029 HD
ATOM    192  H   UNL     1     139.266 174.848 189.151  0.00  0.00    +0.029 HD
BRANCH 190 193
ATOM    193  C   UNL     1     140.289 173.352 187.972  0.00  0.00    +0.061 C 
ATOM    194  O   UNL     1     141.608 173.805 187.653  0.00  0.00    -0.373 OA
ATOM    195  C   UNL     1     141.708 175.196 187.337  0.00  0.00    +0.059 C 
ATOM    196  C   UNL     1     140.818 175.553 186.148  0.00  0.00    -0.000 C 
ATOM    197  C   UNL     1     139.371 175.129 186.404  0.00  0.00    +0.063 C 
ATOM    198  C   UNL     1     139.332 173.657 186.819  0.00  0.00    -0.000 C 
ATOM    199  H   UNL     1     140.357 172.262 188.066  0.00  0.00    +0.060 HD
ATOM    200  H   UNL     1     141.427 175.789 188.215  0.00  0.00    +0.059 HD
ATOM    201  H   UNL     1     141.176 175.052 185.240  0.00  0.00    +0.032 HD
ATOM    202  H   UNL     1     140.875 176.629 185.949  0.00  0.00    +0.032 HD
ATOM    203  H   UNL     1     138.933 175.739 187.203  0.00  0.00    +0.060 HD
ATOM    204  H   UNL     1     139.616 173.048 185.949  0.00  0.00    +0.032 HD
ATOM    205  H   UNL     1     138.305 173.360 187.064  0.00  0.00    +0.032 HD
BRANCH 195 206
ATOM    206  C   UNL     1     143.172 175.487 187.025  0.00  0.00    -0.039 C 
ATOM    207  H   UNL     1     143.665 175.931 187.896  0.00  0.00    +0.025 HD
ATOM    208  H   UNL     1     143.266 176.177 186.180  0.00  0.00    +0.025 HD
ATOM    209  H   UNL     1     143.714 174.564 186.791  0.00  0.00    +0.025 HD
ENDBRANCH 195 206
BRANCH 197 210
ATOM    210  O   UNL     1     138.567 175.259 185.225  0.00  0.00    -0.380 OA
BRANCH 210 211
ATOM    211  C   UNL     1     138.830 174.267 184.239  0.00  0.00    +0.037 C 
ATOM    212  H   UNL     1     139.723 174.570 183.684  0.00  0.00    +0.052 HD
ATOM    213  H   UNL     1     138.000 174.190 183.531  0.00  0.00    +0.052 HD
ATOM    214  H   UNL     1     139.022 173.297 184.707  0.00  0.00    +0.052 HD
ENDBRANCH 210 211
ENDBRANCH 197 210
ENDBRANCH 190 193
ENDBRANCH 187 190
ENDBRANCH 181 187
ENDBRANCH 177 181
ENDBRANCH 171 177
ENDBRANCH  22 171
BRANCH  20 215
ATOM    215  O   UNL     1     143.247 176.691 192.880  0.00  0.00    -0.391 OA
ATOM    216  H   UNL     1     144.152 177.046 192.806  0.00  0.00    +0.210 HD
ENDBRANCH  20 215
BRANCH  18 217
ATOM    217  O   UNL     1     142.870 178.779 191.271  0.00  0.00    -0.391 OA
ATOM    218  H   UNL     1     142.370 179.576 190.999  0.00  0.00    +0.210 HD
ENDBRANCH  18 217
BRANCH  10 219
ATOM    219  O   UNL     1     135.810 174.683 186.182  0.00  0.00    -0.391 OA
ATOM    220  H   UNL     1     136.599 175.254 186.218  0.00  0.00    +0.210 HD
ENDBRANCH  10 219
BRANCH  37 221
ATOM    221  O   UNL     1     133.529 174.504 202.630  0.00  0.00    -0.379 OA
BRANCH 221 222
ATOM    222  C   UNL     1     132.159 174.441 203.005  0.00  0.00    +0.037 C 
ATOM    223  H   UNL     1     131.990 173.483 203.504  0.00  0.00    +0.052 HD
ATOM    224  H   UNL     1     131.905 175.238 203.707  0.00  0.00    +0.052 HD
ATOM    225  H   UNL     1     131.512 174.493 202.124  0.00  0.00    +0.052 HD
ENDBRANCH 221 222
ENDBRANCH  37 221
BRANCH  16 226
ATOM    226  O   UNL     1     140.344 180.374 189.306  0.00  0.00    -0.379 OA
BRANCH 226 227
ATOM    227  C   UNL     1     140.281 181.107 190.524  0.00  0.00    +0.037 C 
ATOM    228  H   UNL     1     141.076 181.855 190.587  0.00  0.00    +0.052 HD
ATOM    229  H   UNL     1     140.346 180.416 191.372  0.00  0.00    +0.052 HD
ATOM    230  H   UNL     1     139.316 181.623 190.567  0.00  0.00    +0.052 HD
ENDBRANCH 226 227
ENDBRANCH  16 226
TORSDOF 40
ENDMDL
MODEL 9
REMARK VINA RESULT:      -4.4     10.844     20.129
REMARK  Name = Swinholide A_conf1
REMARK  40 active torsions:
REMARK  status: ('A' for Active; 'I' for Inactive)
REMARK    1  A    between atoms: C_1  and  C_2
REMARK    2  A    between atoms: C_4  and  C_10
REMARK    3  A    between atoms: C_6  and  O_8
REMARK    4  A    between atoms: O_8  and  C_9
REMARK    5  A    between atoms: C_10  and  C_11
REMARK    6  A    between atoms: C_11  and  C_12
REMARK    7  A    between atoms: C_12  and  C_13
REMARK    8  A    between atoms: C_12  and  C_98
REMARK    9  A    between atoms: C_13  and  O_14
REMARK   10  A    between atoms: C_13  and  C_15
REMARK   11  A    between atoms: C_15  and  C_16
REMARK   12  A    between atoms: C_15  and  C_97
REMARK   13  A    between atoms: C_22  and  C_96
REMARK   14  A    between atoms: C_25  and  O_95
REMARK   15  A    between atoms: C_31  and  O_90
REMARK   16  A    between atoms: C_32  and  C_89
REMARK   17  A    between atoms: C_33  and  O_88
REMARK   18  A    between atoms: C_35  and  O_87
REMARK   19  A    between atoms: C_36  and  C_86
REMARK   20  A    between atoms: C_37  and  C_69
REMARK   21  A    between atoms: C_43  and  C_68
REMARK   22  A    between atoms: C_46  and  O_67
REMARK   23  A    between atoms: C_52  and  O_62
REMARK   24  A    between atoms: C_53  and  C_61
REMARK   25  A    between atoms: C_54  and  O_60
REMARK   26  A    between atoms: C_56  and  O_59
REMARK   27  A    between atoms: C_57  and  C_58
REMARK   28  A    between atoms: O_62  and  C_63
REMARK   29  A    between atoms: C_69  and  C_70
REMARK   30  A    between atoms: C_69  and  C_85
REMARK   31  A    between atoms: C_70  and  O_71
REMARK   32  A    between atoms: C_70  and  C_72
REMARK   33  A    between atoms: C_72  and  C_73
REMARK   34  A    between atoms: C_72  and  C_84
REMARK   35  A    between atoms: C_73  and  C_74
REMARK   36  A    between atoms: C_74  and  C_75
REMARK   37  A    between atoms: C_77  and  C_83
REMARK   38  A    between atoms: C_79  and  O_81
REMARK   39  A    between atoms: O_81  and  C_82
REMARK   40  A    between atoms: O_90  and  C_91
REMARK                            x       y       z     vdW  Elec       q    Type
REMARK                         _______ _______ _______ _____ _____    ______ ____
ROOT
ATOM      1  C   UNL     1     132.090 176.127 195.490  0.00  0.00    +0.113 C 
ATOM      2  O   UNL     1     132.561 175.431 194.303  0.00  0.00    -0.458 OA
ATOM      3  C   UNL     1     131.863 175.665 193.158  0.00  0.00    +0.332 C 
ATOM      4  O   UNL     1     130.861 176.364 193.052  0.00  0.00    -0.246 OA
ATOM      5  C   UNL     1     132.427 174.971 191.990  0.00  0.00    +0.023 C 
ATOM      6  C   UNL     1     133.706 174.584 191.879  0.00  0.00    -0.052 C 
ATOM      7  C   UNL     1     134.300 174.020 190.671  0.00  0.00    -0.054 C 
ATOM      8  C   UNL     1     134.051 174.545 189.453  0.00  0.00    -0.079 C 
ATOM      9  C   UNL     1     134.771 174.198 188.174  0.00  0.00    -0.008 C 
ATOM     10  C   UNL     1     134.891 175.361 187.170  0.00  0.00    +0.061 C 
ATOM     11  C   UNL     1     135.326 176.735 187.697  0.00  0.00    +0.003 C 
ATOM     12  C   UNL     1     136.773 176.910 188.195  0.00  0.00    +0.080 C 
ATOM     13  O   UNL     1     136.974 178.346 188.195  0.00  0.00    -0.369 OA
ATOM     14  C   UNL     1     137.961 178.862 189.103  0.00  0.00    +0.065 C 
ATOM     15  C   UNL     1     139.384 178.455 188.666  0.00  0.00    +0.000 C 
ATOM     16  C   UNL     1     140.502 179.112 189.503  0.00  0.00    +0.066 C 
ATOM     17  C   UNL     1     141.896 178.587 189.040  0.00  0.00    +0.009 C 
ATOM     18  C   UNL     1     142.705 177.932 190.189  0.00  0.00    +0.063 C 
ATOM     19  C   UNL     1     142.062 176.634 190.723  0.00  0.00    -0.000 C 
ATOM     20  C   UNL     1     143.003 175.896 191.699  0.00  0.00    +0.064 C 
ATOM     21  C   UNL     1     142.522 174.480 192.144  0.00  0.00    +0.020 C 
ATOM     22  C   UNL     1     141.119 174.475 192.830  0.00  0.00    +0.113 C 
ATOM     23  O   UNL     1     141.218 175.317 194.009  0.00  0.00    -0.458 OA
ATOM     24  C   UNL     1     140.219 176.220 194.194  0.00  0.00    +0.332 C 
ATOM     25  O   UNL     1     139.199 176.312 193.532  0.00  0.00    -0.246 OA
ATOM     26  C   UNL     1     140.544 177.066 195.365  0.00  0.00    +0.023 C 
ATOM     27  C   UNL     1     139.707 178.055 195.711  0.00  0.00    -0.052 C 
ATOM     28  C   UNL     1     139.865 178.954 196.848  0.00  0.00    -0.054 C 
ATOM     29  C   UNL     1     140.074 178.480 198.094  0.00  0.00    -0.079 C 
ATOM     30  C   UNL     1     140.210 179.276 199.363  0.00  0.00    -0.008 C 
ATOM     31  C   UNL     1     138.973 179.238 200.292  0.00  0.00    +0.061 C 
ATOM     32  C   UNL     1     138.889 177.944 201.129  0.00  0.00    +0.003 C 
ATOM     33  C   UNL     1     137.823 178.005 202.247  0.00  0.00    +0.080 C 
ATOM     34  O   UNL     1     136.503 177.749 201.737  0.00  0.00    -0.369 OA
ATOM     35  C   UNL     1     135.999 176.403 201.881  0.00  0.00    +0.065 C 
ATOM     36  C   UNL     1     134.555 176.445 201.348  0.00  0.00    +0.000 C 
ATOM     37  C   UNL     1     133.734 175.135 201.280  0.00  0.00    +0.066 C 
ATOM     38  C   UNL     1     134.369 174.089 200.313  0.00  0.00    +0.009 C 
ATOM     39  C   UNL     1     133.356 173.455 199.318  0.00  0.00    +0.063 C 
ATOM     40  C   UNL     1     132.456 174.473 198.599  0.00  0.00    -0.000 C 
ATOM     41  C   UNL     1     132.109 174.047 197.159  0.00  0.00    +0.064 C 
ATOM     42  C   UNL     1     131.293 175.157 196.432  0.00  0.00    +0.020 C 
ATOM     43  C   UNL     1     136.063 175.941 203.344  0.00  0.00    -0.008 C 
ATOM     44  C   UNL     1     137.417 176.178 203.925  0.00  0.00    -0.083 C 
ATOM     45  C   UNL     1     138.207 177.124 203.413  0.00  0.00    -0.059 C 
ATOM     46  C   UNL     1     137.569 178.469 190.538  0.00  0.00    -0.008 C 
ATOM     47  C   UNL     1     137.356 176.994 190.638  0.00  0.00    -0.083 C 
ATOM     48  C   UNL     1     137.021 176.290 189.549  0.00  0.00    -0.059 C 
ATOM     49  H   UNL     1     131.345 176.876 195.179  0.00  0.00    +0.074 HD
ATOM     50  H   UNL     1     131.731 174.874 191.163  0.00  0.00    +0.069 HD
ATOM     51  H   UNL     1     134.403 174.719 192.704  0.00  0.00    +0.062 HD
ATOM     52  H   UNL     1     133.321 175.348 189.364  0.00  0.00    +0.058 HD
ATOM     53  H   UNL     1     135.771 173.792 188.366  0.00  0.00    +0.033 HD
ATOM     54  H   UNL     1     134.220 173.384 187.682  0.00  0.00    +0.033 HD
ATOM     55  H   UNL     1     133.897 175.492 186.722  0.00  0.00    +0.060 HD
ATOM     56  H   UNL     1     134.630 177.090 188.467  0.00  0.00    +0.032 HD
ATOM     57  H   UNL     1     135.193 177.442 186.864  0.00  0.00    +0.032 HD
ATOM     58  H   UNL     1     137.478 176.490 187.468  0.00  0.00    +0.064 HD
ATOM     59  H   UNL     1     137.881 179.954 189.026  0.00  0.00    +0.060 HD
ATOM     60  H   UNL     1     139.501 178.748 187.612  0.00  0.00    +0.032 HD
ATOM     61  H   UNL     1     139.497 177.364 188.690  0.00  0.00    +0.032 HD
ATOM     62  H   UNL     1     140.335 178.858 190.555  0.00  0.00    +0.060 HD
ATOM     63  H   UNL     1     141.745 177.795 188.292  0.00  0.00    +0.035 HD
ATOM     64  H   UNL     1     143.706 177.689 189.813  0.00  0.00    +0.060 HD
ATOM     65  H   UNL     1     141.139 176.891 191.256  0.00  0.00    +0.032 HD
ATOM     66  H   UNL     1     141.808 175.981 189.880  0.00  0.00    +0.032 HD
ATOM     67  H   UNL     1     143.983 175.779 191.218  0.00  0.00    +0.060 HD
ATOM     68  H   UNL     1     143.255 174.146 192.889  0.00  0.00    +0.036 HD
ATOM     69  H   UNL     1     140.415 174.903 192.108  0.00  0.00    +0.074 HD
ATOM     70  H   UNL     1     141.457 176.855 195.905  0.00  0.00    +0.069 HD
ATOM     71  H   UNL     1     138.817 178.234 195.106  0.00  0.00    +0.062 HD
ATOM     72  H   UNL     1     140.172 177.406 198.237  0.00  0.00    +0.058 HD
ATOM     73  H   UNL     1     141.089 178.908 199.910  0.00  0.00    +0.033 HD
ATOM     74  H   UNL     1     140.462 180.319 199.139  0.00  0.00    +0.033 HD
ATOM     75  H   UNL     1     138.048 179.369 199.719  0.00  0.00    +0.060 HD
ATOM     76  H   UNL     1     139.874 177.785 201.589  0.00  0.00    +0.032 HD
ATOM     77  H   UNL     1     138.693 177.094 200.465  0.00  0.00    +0.032 HD
ATOM     78  H   UNL     1     137.779 179.021 202.653  0.00  0.00    +0.064 HD
ATOM     79  H   UNL     1     136.612 175.753 201.249  0.00  0.00    +0.060 HD
ATOM     80  H   UNL     1     134.584 176.879 200.337  0.00  0.00    +0.032 HD
ATOM     81  H   UNL     1     134.000 177.182 201.941  0.00  0.00    +0.032 HD
ATOM     82  H   UNL     1     132.757 175.429 200.884  0.00  0.00    +0.060 HD
ATOM     83  H   UNL     1     135.084 174.621 199.677  0.00  0.00    +0.035 HD
ATOM     84  H   UNL     1     133.949 172.908 198.574  0.00  0.00    +0.060 HD
ATOM     85  H   UNL     1     131.517 174.576 199.161  0.00  0.00    +0.032 HD
ATOM     86  H   UNL     1     132.933 175.448 198.591  0.00  0.00    +0.032 HD
ATOM     87  H   UNL     1     133.013 173.814 196.591  0.00  0.00    +0.060 HD
ATOM     88  H   UNL     1     130.828 175.786 197.204  0.00  0.00    +0.036 HD
ATOM     89  H   UNL     1     135.833 174.873 203.420  0.00  0.00    +0.033 HD
ATOM     90  H   UNL     1     135.336 176.485 203.958  0.00  0.00    +0.033 HD
ATOM     91  H   UNL     1     137.723 175.601 204.792  0.00  0.00    +0.057 HD
ATOM     92  H   UNL     1     139.176 177.311 203.871  0.00  0.00    +0.059 HD
ATOM     93  H   UNL     1     136.626 178.959 190.811  0.00  0.00    +0.033 HD
ATOM     94  H   UNL     1     138.320 178.794 191.261  0.00  0.00    +0.033 HD
ATOM     95  H   UNL     1     137.493 176.506 191.598  0.00  0.00    +0.057 HD
ATOM     96  H   UNL     1     136.934 175.213 189.637  0.00  0.00    +0.059 HD
ENDROOT
BRANCH  28  97
ATOM     97  C   UNL     1     139.666 180.406 196.498  0.00  0.00    -0.040 C 
ATOM     98  H   UNL     1     140.106 180.638 195.521  0.00  0.00    +0.028 HD
ATOM     99  H   UNL     1     140.147 181.042 197.249  0.00  0.00    +0.028 HD
ATOM    100  H   UNL     1     138.614 180.697 196.438  0.00  0.00    +0.028 HD
ENDBRANCH  28  97
BRANCH  21 101
ATOM    101  C   UNL     1     142.589 173.514 190.956  0.00  0.00    -0.057 C 
ATOM    102  H   UNL     1     143.195 172.631 191.186  0.00  0.00    +0.023 HD
ATOM    103  H   UNL     1     143.021 173.998 190.074  0.00  0.00    +0.023 HD
ATOM    104  H   UNL     1     141.588 173.173 190.667  0.00  0.00    +0.023 HD
ENDBRANCH  21 101
BRANCH  42 105
ATOM    105  C   UNL     1     130.108 174.553 195.642  0.00  0.00    -0.057 C 
ATOM    106  H   UNL     1     130.450 174.092 194.709  0.00  0.00    +0.023 HD
ATOM    107  H   UNL     1     129.576 173.794 196.228  0.00  0.00    +0.023 HD
ATOM    108  H   UNL     1     129.388 175.328 195.357  0.00  0.00    +0.023 HD
ENDBRANCH  42 105
BRANCH  17 109
ATOM    109  C   UNL     1     142.747 179.663 188.349  0.00  0.00    -0.058 C 
ATOM    110  H   UNL     1     142.153 180.536 188.060  0.00  0.00    +0.023 HD
ATOM    111  H   UNL     1     143.541 180.012 189.018  0.00  0.00    +0.023 HD
ATOM    112  H   UNL     1     143.231 179.262 187.452  0.00  0.00    +0.023 HD
ENDBRANCH  17 109
BRANCH  38 113
ATOM    113  C   UNL     1     135.142 172.977 201.042  0.00  0.00    -0.058 C 
ATOM    114  H   UNL     1     134.505 172.117 201.281  0.00  0.00    +0.023 HD
ATOM    115  H   UNL     1     135.578 173.342 201.976  0.00  0.00    +0.023 HD
ATOM    116  H   UNL     1     135.963 172.605 200.419  0.00  0.00    +0.023 HD
ENDBRANCH  38 113
BRANCH   7 117
ATOM    117  C   UNL     1     135.274 172.905 190.930  0.00  0.00    -0.040 C 
ATOM    118  H   UNL     1     136.295 173.294 191.014  0.00  0.00    +0.028 HD
ATOM    119  H   UNL     1     135.243 172.180 190.115  0.00  0.00    +0.028 HD
ATOM    120  H   UNL     1     135.067 172.376 191.864  0.00  0.00    +0.028 HD
ENDBRANCH   7 117
BRANCH   1 121
ATOM    121  C   UNL     1     133.260 177.014 196.058  0.00  0.00    +0.020 C 
ATOM    122  H   UNL     1     133.468 177.728 195.245  0.00  0.00    +0.036 HD
BRANCH 121 123
ATOM    123  C   UNL     1     132.731 177.825 197.255  0.00  0.00    -0.057 C 
ATOM    124  H   UNL     1     133.134 178.840 197.253  0.00  0.00    +0.023 HD
ATOM    125  H   UNL     1     132.983 177.364 198.212  0.00  0.00    +0.023 HD
ATOM    126  H   UNL     1     131.644 177.951 197.220  0.00  0.00    +0.023 HD
ENDBRANCH 121 123
BRANCH 121 127
ATOM    127  C   UNL     1     134.632 176.306 196.325  0.00  0.00    +0.064 C 
ATOM    128  H   UNL     1     134.435 175.274 196.602  0.00  0.00    +0.060 HD
BRANCH 127 129
ATOM    129  C   UNL     1     135.599 176.899 197.405  0.00  0.00    -0.017 C 
ATOM    130  H   UNL     1     134.985 177.393 198.170  0.00  0.00    +0.032 HD
BRANCH 129 131
ATOM    131  C   UNL     1     136.486 175.900 198.144  0.00  0.00    -0.060 C 
ATOM    132  H   UNL     1     137.423 175.735 197.605  0.00  0.00    +0.023 HD
ATOM    133  H   UNL     1     136.694 176.220 199.168  0.00  0.00    +0.023 HD
ATOM    134  H   UNL     1     135.999 174.918 198.203  0.00  0.00    +0.023 HD
ENDBRANCH 129 131
BRANCH 129 135
ATOM    135  C   UNL     1     136.528 177.984 196.784  0.00  0.00    -0.046 C 
ATOM    136  H   UNL     1     136.748 177.728 195.741  0.00  0.00    +0.027 HD
ATOM    137  H   UNL     1     137.491 177.961 197.298  0.00  0.00    +0.027 HD
BRANCH 135 138
ATOM    138  C   UNL     1     135.984 179.411 196.874  0.00  0.00    -0.026 C 
ATOM    139  H   UNL     1     136.741 180.058 197.326  0.00  0.00    +0.029 HD
ATOM    140  H   UNL     1     135.126 179.437 197.549  0.00  0.00    +0.029 HD
BRANCH 138 143
ATOM    141  C   UNL     1     135.409 179.400 193.185  0.00  0.00    +0.059 C 
ATOM    142  O   UNL     1     135.926 179.056 194.480  0.00  0.00    -0.373 OA
ATOM    143  C   UNL     1     135.571 179.985 195.508  0.00  0.00    +0.061 C 
ATOM    144  C   UNL     1     136.244 181.330 195.231  0.00  0.00    -0.000 C 
ATOM    145  C   UNL     1     136.378 181.631 193.733  0.00  0.00    +0.063 C 
ATOM    146  C   UNL     1     135.282 180.907 192.963  0.00  0.00    -0.000 C 
ATOM    147  H   UNL     1     136.140 179.009 192.467  0.00  0.00    +0.059 HD
ATOM    148  H   UNL     1     134.482 180.105 195.489  0.00  0.00    +0.060 HD
ATOM    149  H   UNL     1     135.687 182.121 195.742  0.00  0.00    +0.032 HD
ATOM    150  H   UNL     1     137.254 181.354 195.657  0.00  0.00    +0.032 HD
ATOM    151  H   UNL     1     137.364 181.287 193.394  0.00  0.00    +0.060 HD
ATOM    152  H   UNL     1     134.305 181.281 193.299  0.00  0.00    +0.032 HD
ATOM    153  H   UNL     1     135.320 181.126 191.890  0.00  0.00    +0.032 HD
BRANCH 141 154
ATOM    154  C   UNL     1     134.085 178.682 192.942  0.00  0.00    -0.039 C 
ATOM    155  H   UNL     1     133.869 178.599 191.873  0.00  0.00    +0.025 HD
ATOM    156  H   UNL     1     134.101 177.675 193.372  0.00  0.00    +0.025 HD
ATOM    157  H   UNL     1     133.257 179.238 193.390  0.00  0.00    +0.025 HD
ENDBRANCH 141 154
BRANCH 145 158
ATOM    158  O   UNL     1     136.294 183.051 193.575  0.00  0.00    -0.380 OA
BRANCH 158 159
ATOM    159  C   UNL     1     135.989 183.743 194.779  0.00  0.00    +0.037 C 
ATOM    160  H   UNL     1     136.501 183.236 195.602  0.00  0.00    +0.052 HD
ATOM    161  H   UNL     1     134.913 183.711 194.980  0.00  0.00    +0.052 HD
ATOM    162  H   UNL     1     136.335 184.780 194.741  0.00  0.00    +0.052 HD
ENDBRANCH 158 159
ENDBRANCH 145 158
ENDBRANCH 138 143
ENDBRANCH 135 138
ENDBRANCH 129 135
ENDBRANCH 127 129
BRANCH 127 163
ATOM    163  O   UNL     1     135.416 176.231 195.127  0.00  0.00    -0.391 OA
ATOM    164  H   UNL     1     136.083 176.938 195.137  0.00  0.00    +0.210 HD
ENDBRANCH 127 163
ENDBRANCH 121 127
ENDBRANCH   1 121
BRANCH  41 165
ATOM    165  O   UNL     1     131.347 172.837 197.233  0.00  0.00    -0.391 OA
ATOM    166  H   UNL     1     130.498 172.964 196.763  0.00  0.00    +0.210 HD
ENDBRANCH  41 165
BRANCH  39 167
ATOM    167  O   UNL     1     132.509 172.488 199.937  0.00  0.00    -0.391 OA
ATOM    168  H   UNL     1     132.749 172.434 200.882  0.00  0.00    +0.210 HD
ENDBRANCH  39 167
BRANCH  31 169
ATOM    169  O   UNL     1     139.090 180.354 201.186  0.00  0.00    -0.391 OA
ATOM    170  H   UNL     1     139.208 179.995 202.082  0.00  0.00    +0.210 HD
ENDBRANCH  31 169
BRANCH  22 171
ATOM    171  C   UNL     1     140.594 173.053 193.238  0.00  0.00    +0.020 C 
ATOM    172  H   UNL     1     141.341 172.332 192.887  0.00  0.00    +0.036 HD
BRANCH 171 173
ATOM    173  C   UNL     1     140.457 172.907 194.755  0.00  0.00    -0.057 C 
ATOM    174  H   UNL     1     140.173 173.854 195.216  0.00  0.00    +0.023 HD
ATOM    175  H   UNL     1     141.392 172.576 195.216  0.00  0.00    +0.023 HD
ATOM    176  H   UNL     1     139.702 172.163 195.023  0.00  0.00    +0.023 HD
ENDBRANCH 171 173
BRANCH 171 177
ATOM    177  C   UNL     1     139.268 172.714 192.506  0.00  0.00    +0.064 C 
ATOM    178  H   UNL     1     138.542 172.351 193.241  0.00  0.00    +0.060 HD
BRANCH 177 179
ATOM    179  O   UNL     1     138.756 173.928 191.953  0.00  0.00    -0.391 OA
ATOM    180  H   UNL     1     137.902 173.698 191.523  0.00  0.00    +0.210 HD
ENDBRANCH 177 179
BRANCH 177 181
ATOM    181  C   UNL     1     139.331 171.643 191.381  0.00  0.00    -0.017 C 
ATOM    182  H   UNL     1     138.464 170.979 191.499  0.00  0.00    +0.032 HD
BRANCH 181 183
ATOM    183  C   UNL     1     139.184 172.335 190.014  0.00  0.00    -0.060 C 
ATOM    184  H   UNL     1     138.409 171.858 189.404  0.00  0.00    +0.023 HD
ATOM    185  H   UNL     1     138.927 173.393 190.122  0.00  0.00    +0.023 HD
ATOM    186  H   UNL     1     140.118 172.295 189.452  0.00  0.00    +0.023 HD
ENDBRANCH 181 183
BRANCH 181 187
ATOM    187  C   UNL     1     140.614 170.781 191.400  0.00  0.00    -0.046 C 
ATOM    188  H   UNL     1     140.562 170.046 192.211  0.00  0.00    +0.027 HD
ATOM    189  H   UNL     1     141.482 171.419 191.609  0.00  0.00    +0.027 HD
BRANCH 187 190
ATOM    190  C   UNL     1     140.829 170.013 190.085  0.00  0.00    -0.026 C 
ATOM    191  H   UNL     1     140.485 170.625 189.247  0.00  0.00    +0.029 HD
ATOM    192  H   UNL     1     140.205 169.111 190.090  0.00  0.00    +0.029 HD
BRANCH 190 193
ATOM    193  C   UNL     1     142.296 169.607 189.858  0.00  0.00    +0.061 C 
ATOM    194  O   UNL     1     142.430 168.517 188.941  0.00  0.00    -0.373 OA
ATOM    195  C   UNL     1     141.963 167.257 189.430  0.00  0.00    +0.059 C 
ATOM    196  C   UNL     1     142.704 166.855 190.704  0.00  0.00    -0.000 C 
ATOM    197  C   UNL     1     142.598 167.953 191.764  0.00  0.00    +0.063 C 
ATOM    198  C   UNL     1     143.029 169.291 191.163  0.00  0.00    -0.000 C 
ATOM    199  H   UNL     1     142.804 170.459 189.392  0.00  0.00    +0.060 HD
ATOM    200  H   UNL     1     140.885 167.317 189.618  0.00  0.00    +0.059 HD
ATOM    201  H   UNL     1     143.765 166.676 190.488  0.00  0.00    +0.032 HD
ATOM    202  H   UNL     1     142.304 165.909 191.086  0.00  0.00    +0.032 HD
ATOM    203  H   UNL     1     141.565 168.035 192.122  0.00  0.00    +0.060 HD
ATOM    204  H   UNL     1     144.109 169.246 190.964  0.00  0.00    +0.032 HD
ATOM    205  H   UNL     1     142.898 170.095 191.898  0.00  0.00    +0.032 HD
BRANCH 195 206
ATOM    206  C   UNL     1     142.188 166.230 188.326  0.00  0.00    -0.039 C 
ATOM    207  H   UNL     1     141.244 166.000 187.821  0.00  0.00    +0.025 HD
ATOM    208  H   UNL     1     142.605 165.301 188.729  0.00  0.00    +0.025 HD
ATOM    209  H   UNL     1     142.868 166.620 187.560  0.00  0.00    +0.025 HD
ENDBRANCH 195 206
BRANCH 197 210
ATOM    210  O   UNL     1     143.458 167.691 192.880  0.00  0.00    -0.380 OA
BRANCH 210 211
ATOM    211  C   UNL     1     143.090 166.540 193.630  0.00  0.00    +0.037 C 
ATOM    212  H   UNL     1     142.402 165.946 193.022  0.00  0.00    +0.052 HD
ATOM    213  H   UNL     1     142.573 166.822 194.551  0.00  0.00    +0.052 HD
ATOM    214  H   UNL     1     143.968 165.929 193.859  0.00  0.00    +0.052 HD
ENDBRANCH 210 211
ENDBRANCH 197 210
ENDBRANCH 190 193
ENDBRANCH 187 190
ENDBRANCH 181 187
ENDBRANCH 177 181
ENDBRANCH 171 177
ENDBRANCH  22 171
BRANCH  20 215
ATOM    215  O   UNL     1     143.229 176.751 192.829  0.00  0.00    -0.391 OA
ATOM    216  H   UNL     1     144.184 176.940 192.867  0.00  0.00    +0.210 HD
ENDBRANCH  20 215
BRANCH  18 217
ATOM    217  O   UNL     1     142.878 178.869 191.254  0.00  0.00    -0.391 OA
ATOM    218  H   UNL     1     142.691 178.384 192.084  0.00  0.00    +0.210 HD
ENDBRANCH  18 217
BRANCH  10 219
ATOM    219  O   UNL     1     135.758 174.952 186.109  0.00  0.00    -0.391 OA
ATOM    220  H   UNL     1     135.304 175.150 185.270  0.00  0.00    +0.210 HD
ENDBRANCH  10 219
BRANCH  37 221
ATOM    221  O   UNL     1     133.492 174.539 202.555  0.00  0.00    -0.379 OA
BRANCH 221 222
ATOM    222  C   UNL     1     132.145 174.629 203.000  0.00  0.00    +0.037 C 
ATOM    223  H   UNL     1     131.794 173.616 203.218  0.00  0.00    +0.052 HD
ATOM    224  H   UNL     1     132.072 175.217 203.917  0.00  0.00    +0.052 HD
ATOM    225  H   UNL     1     131.507 175.059 202.223  0.00  0.00    +0.052 HD
ENDBRANCH 221 222
ENDBRANCH  37 221
BRANCH  16 226
ATOM    226  O   UNL     1     140.373 180.530 189.318  0.00  0.00    -0.379 OA
BRANCH 226 227
ATOM    227  C   UNL     1     140.324 181.244 190.547  0.00  0.00    +0.037 C 
ATOM    228  H   UNL     1     141.130 180.942 191.223  0.00  0.00    +0.052 HD
ATOM    229  H   UNL     1     139.352 181.082 191.027  0.00  0.00    +0.052 HD
ATOM    230  H   UNL     1     140.434 182.312 190.332  0.00  0.00    +0.052 HD
ENDBRANCH 226 227
ENDBRANCH  16 226
TORSDOF 40
ENDMDL
MODEL 10
REMARK VINA RESULT:      -4.4      5.502     12.674
REMARK  Name = Swinholide A_conf1
REMARK  40 active torsions:
REMARK  status: ('A' for Active; 'I' for Inactive)
REMARK    1  A    between atoms: C_1  and  C_2
REMARK    2  A    between atoms: C_4  and  C_10
REMARK    3  A    between atoms: C_6  and  O_8
REMARK    4  A    between atoms: O_8  and  C_9
REMARK    5  A    between atoms: C_10  and  C_11
REMARK    6  A    between atoms: C_11  and  C_12
REMARK    7  A    between atoms: C_12  and  C_13
REMARK    8  A    between atoms: C_12  and  C_98
REMARK    9  A    between atoms: C_13  and  O_14
REMARK   10  A    between atoms: C_13  and  C_15
REMARK   11  A    between atoms: C_15  and  C_16
REMARK   12  A    between atoms: C_15  and  C_97
REMARK   13  A    between atoms: C_22  and  C_96
REMARK   14  A    between atoms: C_25  and  O_95
REMARK   15  A    between atoms: C_31  and  O_90
REMARK   16  A    between atoms: C_32  and  C_89
REMARK   17  A    between atoms: C_33  and  O_88
REMARK   18  A    between atoms: C_35  and  O_87
REMARK   19  A    between atoms: C_36  and  C_86
REMARK   20  A    between atoms: C_37  and  C_69
REMARK   21  A    between atoms: C_43  and  C_68
REMARK   22  A    between atoms: C_46  and  O_67
REMARK   23  A    between atoms: C_52  and  O_62
REMARK   24  A    between atoms: C_53  and  C_61
REMARK   25  A    between atoms: C_54  and  O_60
REMARK   26  A    between atoms: C_56  and  O_59
REMARK   27  A    between atoms: C_57  and  C_58
REMARK   28  A    between atoms: O_62  and  C_63
REMARK   29  A    between atoms: C_69  and  C_70
REMARK   30  A    between atoms: C_69  and  C_85
REMARK   31  A    between atoms: C_70  and  O_71
REMARK   32  A    between atoms: C_70  and  C_72
REMARK   33  A    between atoms: C_72  and  C_73
REMARK   34  A    between atoms: C_72  and  C_84
REMARK   35  A    between atoms: C_73  and  C_74
REMARK   36  A    between atoms: C_74  and  C_75
REMARK   37  A    between atoms: C_77  and  C_83
REMARK   38  A    between atoms: C_79  and  O_81
REMARK   39  A    between atoms: O_81  and  C_82
REMARK   40  A    between atoms: O_90  and  C_91
REMARK                            x       y       z     vdW  Elec       q    Type
REMARK                         _______ _______ _______ _____ _____    ______ ____
ROOT
ATOM      1  C   UNL     1     135.871 170.004 186.497  0.00  0.00    +0.113 C 
ATOM      2  O   UNL     1     136.572 168.767 186.193  0.00  0.00    -0.458 OA
ATOM      3  C   UNL     1     136.617 168.414 184.879  0.00  0.00    +0.332 C 
ATOM      4  O   UNL     1     136.090 169.016 183.950  0.00  0.00    -0.246 OA
ATOM      5  C   UNL     1     137.386 167.183 184.641  0.00  0.00    +0.023 C 
ATOM      6  C   UNL     1     138.348 166.718 185.451  0.00  0.00    -0.052 C 
ATOM      7  C   UNL     1     139.205 165.575 185.151  0.00  0.00    -0.054 C 
ATOM      8  C   UNL     1     139.750 165.406 183.929  0.00  0.00    -0.079 C 
ATOM      9  C   UNL     1     140.817 164.404 183.565  0.00  0.00    -0.008 C 
ATOM     10  C   UNL     1     141.782 164.868 182.457  0.00  0.00    +0.061 C 
ATOM     11  C   UNL     1     142.361 166.287 182.542  0.00  0.00    +0.003 C 
ATOM     12  C   UNL     1     143.367 166.607 183.664  0.00  0.00    +0.080 C 
ATOM     13  O   UNL     1     144.022 167.820 183.214  0.00  0.00    -0.369 OA
ATOM     14  C   UNL     1     144.578 168.671 184.229  0.00  0.00    +0.065 C 
ATOM     15  C   UNL     1     145.803 168.011 184.896  0.00  0.00    +0.000 C 
ATOM     16  C   UNL     1     146.547 168.938 185.881  0.00  0.00    +0.066 C 
ATOM     17  C   UNL     1     147.721 168.166 186.559  0.00  0.00    +0.009 C 
ATOM     18  C   UNL     1     147.619 168.154 188.107  0.00  0.00    +0.063 C 
ATOM     19  C   UNL     1     146.401 167.362 188.631  0.00  0.00    -0.000 C 
ATOM     20  C   UNL     1     146.459 167.182 190.162  0.00  0.00    +0.064 C 
ATOM     21  C   UNL     1     145.375 166.234 190.761  0.00  0.00    +0.020 C 
ATOM     22  C   UNL     1     143.909 166.670 190.447  0.00  0.00    +0.113 C 
ATOM     23  O   UNL     1     143.726 167.993 191.016  0.00  0.00    -0.458 OA
ATOM     24  C   UNL     1     143.134 168.920 190.217  0.00  0.00    +0.332 C 
ATOM     25  O   UNL     1     142.643 168.717 189.119  0.00  0.00    -0.246 OA
ATOM     26  C   UNL     1     143.140 170.229 190.909  0.00  0.00    +0.023 C 
ATOM     27  C   UNL     1     142.635 171.303 190.284  0.00  0.00    -0.052 C 
ATOM     28  C   UNL     1     142.539 172.649 190.835  0.00  0.00    -0.054 C 
ATOM     29  C   UNL     1     141.965 172.878 192.034  0.00  0.00    -0.079 C 
ATOM     30  C   UNL     1     141.754 174.207 192.707  0.00  0.00    -0.008 C 
ATOM     31  C   UNL     1     140.299 174.730 192.675  0.00  0.00    +0.061 C 
ATOM     32  C   UNL     1     139.396 174.066 193.736  0.00  0.00    +0.003 C 
ATOM     33  C   UNL     1     138.026 174.762 193.898  0.00  0.00    +0.080 C 
ATOM     34  O   UNL     1     137.101 174.359 192.873  0.00  0.00    -0.369 OA
ATOM     35  C   UNL     1     136.162 173.316 193.216  0.00  0.00    +0.065 C 
ATOM     36  C   UNL     1     135.249 173.163 191.986  0.00  0.00    +0.000 C 
ATOM     37  C   UNL     1     134.163 172.060 191.980  0.00  0.00    +0.066 C 
ATOM     38  C   UNL     1     134.775 170.628 192.067  0.00  0.00    +0.009 C 
ATOM     39  C   UNL     1     134.198 169.633 191.021  0.00  0.00    +0.063 C 
ATOM     40  C   UNL     1     134.149 170.182 189.586  0.00  0.00    -0.000 C 
ATOM     41  C   UNL     1     134.394 169.093 188.523  0.00  0.00    +0.064 C 
ATOM     42  C   UNL     1     134.448 169.713 187.095  0.00  0.00    +0.020 C 
ATOM     43  C   UNL     1     135.372 173.676 194.482  0.00  0.00    -0.008 C 
ATOM     44  C   UNL     1     136.285 174.098 195.585  0.00  0.00    -0.083 C 
ATOM     45  C   UNL     1     137.492 174.592 195.301  0.00  0.00    -0.059 C 
ATOM     46  C   UNL     1     143.453 169.103 185.185  0.00  0.00    -0.008 C 
ATOM     47  C   UNL     1     142.729 167.910 185.716  0.00  0.00    -0.083 C 
ATOM     48  C   UNL     1     142.723 166.765 185.021  0.00  0.00    -0.059 C 
ATOM     49  H   UNL     1     135.665 170.526 185.550  0.00  0.00    +0.074 HD
ATOM     50  H   UNL     1     137.172 166.714 183.686  0.00  0.00    +0.069 HD
ATOM     51  H   UNL     1     138.577 167.218 186.390  0.00  0.00    +0.062 HD
ATOM     52  H   UNL     1     139.472 166.089 183.128  0.00  0.00    +0.058 HD
ATOM     53  H   UNL     1     141.404 164.097 184.438  0.00  0.00    +0.033 HD
ATOM     54  H   UNL     1     140.320 163.488 183.216  0.00  0.00    +0.033 HD
ATOM     55  H   UNL     1     141.227 164.808 181.512  0.00  0.00    +0.060 HD
ATOM     56  H   UNL     1     141.554 167.031 182.553  0.00  0.00    +0.032 HD
ATOM     57  H   UNL     1     142.883 166.466 181.591  0.00  0.00    +0.032 HD
ATOM     58  H   UNL     1     144.137 165.829 183.715  0.00  0.00    +0.064 HD
ATOM     59  H   UNL     1     144.922 169.567 183.697  0.00  0.00    +0.060 HD
ATOM     60  H   UNL     1     146.491 167.707 184.094  0.00  0.00    +0.032 HD
ATOM     61  H   UNL     1     145.511 167.086 185.409  0.00  0.00    +0.032 HD
ATOM     62  H   UNL     1     145.833 169.276 186.638  0.00  0.00    +0.060 HD
ATOM     63  H   UNL     1     147.677 167.111 186.250  0.00  0.00    +0.035 HD
ATOM     64  H   UNL     1     148.528 167.691 188.510  0.00  0.00    +0.060 HD
ATOM     65  H   UNL     1     145.487 167.913 188.379  0.00  0.00    +0.032 HD
ATOM     66  H   UNL     1     146.365 166.384 188.138  0.00  0.00    +0.032 HD
ATOM     67  H   UNL     1     147.443 166.773 190.428  0.00  0.00    +0.060 HD
ATOM     68  H   UNL     1     145.510 166.291 191.849  0.00  0.00    +0.036 HD
ATOM     69  H   UNL     1     143.818 166.704 189.355  0.00  0.00    +0.074 HD
ATOM     70  H   UNL     1     143.561 170.273 191.905  0.00  0.00    +0.069 HD
ATOM     71  H   UNL     1     142.253 171.196 189.268  0.00  0.00    +0.062 HD
ATOM     72  H   UNL     1     141.610 172.030 192.616  0.00  0.00    +0.058 HD
ATOM     73  H   UNL     1     142.090 174.123 193.750  0.00  0.00    +0.033 HD
ATOM     74  H   UNL     1     142.422 174.965 192.281  0.00  0.00    +0.033 HD
ATOM     75  H   UNL     1     139.857 174.601 191.680  0.00  0.00    +0.060 HD
ATOM     76  H   UNL     1     139.930 174.109 194.694  0.00  0.00    +0.032 HD
ATOM     77  H   UNL     1     139.256 173.009 193.482  0.00  0.00    +0.032 HD
ATOM     78  H   UNL     1     138.147 175.842 193.762  0.00  0.00    +0.064 HD
ATOM     79  H   UNL     1     136.735 172.396 193.373  0.00  0.00    +0.060 HD
ATOM     80  H   UNL     1     135.893 173.007 191.108  0.00  0.00    +0.032 HD
ATOM     81  H   UNL     1     134.772 174.133 191.800  0.00  0.00    +0.032 HD
ATOM     82  H   UNL     1     133.652 172.165 191.018  0.00  0.00    +0.060 HD
ATOM     83  H   UNL     1     135.838 170.709 191.813  0.00  0.00    +0.035 HD
ATOM     84  H   UNL     1     134.842 168.744 191.045  0.00  0.00    +0.060 HD
ATOM     85  H   UNL     1     133.156 170.619 189.406  0.00  0.00    +0.032 HD
ATOM     86  H   UNL     1     134.875 170.982 189.470  0.00  0.00    +0.032 HD
ATOM     87  H   UNL     1     135.317 168.546 188.729  0.00  0.00    +0.060 HD
ATOM     88  H   UNL     1     133.924 170.678 187.132  0.00  0.00    +0.036 HD
ATOM     89  H   UNL     1     134.784 172.819 194.826  0.00  0.00    +0.033 HD
ATOM     90  H   UNL     1     134.679 174.503 194.289  0.00  0.00    +0.033 HD
ATOM     91  H   UNL     1     135.932 174.037 196.610  0.00  0.00    +0.057 HD
ATOM     92  H   UNL     1     138.132 174.930 196.114  0.00  0.00    +0.059 HD
ATOM     93  H   UNL     1     142.724 169.720 184.644  0.00  0.00    +0.033 HD
ATOM     94  H   UNL     1     143.838 169.710 186.008  0.00  0.00    +0.033 HD
ATOM     95  H   UNL     1     142.224 167.983 186.675  0.00  0.00    +0.057 HD
ATOM     96  H   UNL     1     142.243 165.897 185.458  0.00  0.00    +0.059 HD
ENDROOT
BRANCH  28  97
ATOM     97  C   UNL     1     143.037 173.719 189.897  0.00  0.00    -0.040 C 
ATOM     98  H   UNL     1     143.817 174.325 190.373  0.00  0.00    +0.028 HD
ATOM     99  H   UNL     1     142.213 174.383 189.614  0.00  0.00    +0.028 HD
ATOM    100  H   UNL     1     143.474 173.320 188.978  0.00  0.00    +0.028 HD
ENDBRANCH  28  97
BRANCH  21 101
ATOM    101  C   UNL     1     145.655 164.789 190.331  0.00  0.00    -0.057 C 
ATOM    102  H   UNL     1     146.286 164.266 191.056  0.00  0.00    +0.023 HD
ATOM    103  H   UNL     1     146.158 164.756 189.359  0.00  0.00    +0.023 HD
ATOM    104  H   UNL     1     144.723 164.223 190.220  0.00  0.00    +0.023 HD
ENDBRANCH  21 101
BRANCH  42 105
ATOM    105  C   UNL     1     133.645 168.860 186.084  0.00  0.00    -0.057 C 
ATOM    106  H   UNL     1     133.901 169.125 185.053  0.00  0.00    +0.023 HD
ATOM    107  H   UNL     1     133.831 167.789 186.223  0.00  0.00    +0.023 HD
ATOM    108  H   UNL     1     132.568 169.035 186.189  0.00  0.00    +0.023 HD
ENDBRANCH  42 105
BRANCH  17 109
ATOM    109  C   UNL     1     149.106 168.674 186.131  0.00  0.00    -0.058 C 
ATOM    110  H   UNL     1     149.240 169.738 186.348  0.00  0.00    +0.023 HD
ATOM    111  H   UNL     1     149.895 168.128 186.660  0.00  0.00    +0.023 HD
ATOM    112  H   UNL     1     149.265 168.515 185.059  0.00  0.00    +0.023 HD
ENDBRANCH  17 109
BRANCH  38 113
ATOM    113  C   UNL     1     134.684 170.011 193.473  0.00  0.00    -0.058 C 
ATOM    114  H   UNL     1     135.626 170.097 194.026  0.00  0.00    +0.023 HD
ATOM    115  H   UNL     1     134.417 168.952 193.426  0.00  0.00    +0.023 HD
ATOM    116  H   UNL     1     133.915 170.518 194.067  0.00  0.00    +0.023 HD
ENDBRANCH  38 113
BRANCH   7 117
ATOM    117  C   UNL     1     139.496 164.699 186.338  0.00  0.00    -0.040 C 
ATOM    118  H   UNL     1     139.796 163.696 186.014  0.00  0.00    +0.028 HD
ATOM    119  H   UNL     1     138.609 164.611 186.968  0.00  0.00    +0.028 HD
ATOM    120  H   UNL     1     140.314 165.083 186.952  0.00  0.00    +0.028 HD
ENDBRANCH   7 117
BRANCH   1 121
ATOM    121  C   UNL     1     136.862 170.984 187.228  0.00  0.00    +0.020 C 
ATOM    122  H   UNL     1     137.649 171.170 186.479  0.00  0.00    +0.036 HD
BRANCH 121 123
ATOM    123  C   UNL     1     136.142 172.323 187.477  0.00  0.00    -0.057 C 
ATOM    124  H   UNL     1     136.716 173.160 187.074  0.00  0.00    +0.023 HD
ATOM    125  H   UNL     1     135.972 172.511 188.539  0.00  0.00    +0.023 HD
ATOM    126  H   UNL     1     135.174 172.371 186.969  0.00  0.00    +0.023 HD
ENDBRANCH 121 123
BRANCH 121 127
ATOM    127  C   UNL     1     137.626 170.430 188.479  0.00  0.00    +0.064 C 
ATOM    128  H   UNL     1     136.988 169.704 188.975  0.00  0.00    +0.060 HD
BRANCH 127 129
ATOM    129  C   UNL     1     138.125 171.433 189.573  0.00  0.00    -0.017 C 
ATOM    130  H   UNL     1     137.436 172.288 189.584  0.00  0.00    +0.032 HD
BRANCH 129 131
ATOM    131  C   UNL     1     138.179 170.904 191.005  0.00  0.00    -0.060 C 
ATOM    132  H   UNL     1     137.610 171.548 191.682  0.00  0.00    +0.023 HD
ATOM    133  H   UNL     1     137.818 169.876 191.074  0.00  0.00    +0.023 HD
ATOM    134  H   UNL     1     139.210 170.913 191.383  0.00  0.00    +0.023 HD
ENDBRANCH 129 131
BRANCH 129 135
ATOM    135  C   UNL     1     139.540 171.982 189.221  0.00  0.00    -0.046 C 
ATOM    136  H   UNL     1     140.117 171.208 188.704  0.00  0.00    +0.027 HD
ATOM    137  H   UNL     1     140.083 172.178 190.148  0.00  0.00    +0.027 HD
BRANCH 135 138
ATOM    138  C   UNL     1     139.533 173.272 188.401  0.00  0.00    -0.026 C 
ATOM    139  H   UNL     1     140.142 174.026 188.908  0.00  0.00    +0.029 HD
ATOM    140  H   UNL     1     138.520 173.682 188.365  0.00  0.00    +0.029 HD
BRANCH 138 143
ATOM    141  C   UNL     1     140.755 171.372 185.430  0.00  0.00    +0.059 C 
ATOM    142  O   UNL     1     140.442 171.713 186.789  0.00  0.00    -0.373 OA
ATOM    143  C   UNL     1     140.050 173.077 186.966  0.00  0.00    +0.061 C 
ATOM    144  C   UNL     1     141.239 173.990 186.662  0.00  0.00    -0.000 C 
ATOM    145  C   UNL     1     142.148 173.436 185.559  0.00  0.00    +0.063 C 
ATOM    146  C   UNL     1     141.343 172.536 184.632  0.00  0.00    -0.000 C 
ATOM    147  H   UNL     1     141.516 170.584 185.495  0.00  0.00    +0.059 HD
ATOM    148  H   UNL     1     139.236 173.285 186.263  0.00  0.00    +0.060 HD
ATOM    149  H   UNL     1     140.869 174.985 186.403  0.00  0.00    +0.032 HD
ATOM    150  H   UNL     1     141.861 174.127 187.555  0.00  0.00    +0.032 HD
ATOM    151  H   UNL     1     142.958 172.861 186.027  0.00  0.00    +0.060 HD
ATOM    152  H   UNL     1     140.554 173.134 184.155  0.00  0.00    +0.032 HD
ATOM    153  H   UNL     1     141.949 172.148 183.805  0.00  0.00    +0.032 HD
BRANCH 141 154
ATOM    154  C   UNL     1     139.529 170.781 184.742  0.00  0.00    -0.039 C 
ATOM    155  H   UNL     1     139.161 171.439 183.950  0.00  0.00    +0.025 HD
ATOM    156  H   UNL     1     139.759 169.804 184.303  0.00  0.00    +0.025 HD
ATOM    157  H   UNL     1     138.710 170.656 185.455  0.00  0.00    +0.025 HD
ENDBRANCH 141 154
BRANCH 145 158
ATOM    158  O   UNL     1     142.707 174.556 184.865  0.00  0.00    -0.380 OA
BRANCH 158 159
ATOM    159  C   UNL     1     142.985 175.668 185.706  0.00  0.00    +0.037 C 
ATOM    160  H   UNL     1     143.033 176.564 185.081  0.00  0.00    +0.052 HD
ATOM    161  H   UNL     1     143.955 175.547 186.198  0.00  0.00    +0.052 HD
ATOM    162  H   UNL     1     142.198 175.807 186.453  0.00  0.00    +0.052 HD
ENDBRANCH 158 159
ENDBRANCH 145 158
ENDBRANCH 138 143
ENDBRANCH 135 138
ENDBRANCH 129 135
ENDBRANCH 127 129
BRANCH 127 163
ATOM    163  O   UNL     1     138.794 169.698 188.087  0.00  0.00    -0.391 OA
ATOM    164  H   UNL     1     139.409 170.297 187.630  0.00  0.00    +0.210 HD
ENDBRANCH 127 163
ENDBRANCH 121 127
ENDBRANCH   1 121
BRANCH  41 165
ATOM    165  O   UNL     1     133.325 168.145 188.614  0.00  0.00    -0.391 OA
ATOM    166  H   UNL     1     132.493 168.620 188.818  0.00  0.00    +0.210 HD
ENDBRANCH  41 165
BRANCH  39 167
ATOM    167  O   UNL     1     132.888 169.180 191.357  0.00  0.00    -0.391 OA
ATOM    168  H   UNL     1     132.942 168.230 191.577  0.00  0.00    +0.210 HD
ENDBRANCH  39 167
BRANCH  31 169
ATOM    169  O   UNL     1     140.358 176.139 192.942  0.00  0.00    -0.391 OA
ATOM    170  H   UNL     1     139.450 176.483 192.882  0.00  0.00    +0.210 HD
ENDBRANCH  31 169
BRANCH  22 171
ATOM    171  C   UNL     1     142.804 165.700 190.997  0.00  0.00    +0.020 C 
ATOM    172  H   UNL     1     143.329 164.862 191.468  0.00  0.00    +0.036 HD
BRANCH 171 173
ATOM    173  C   UNL     1     141.925 166.374 192.053  0.00  0.00    -0.057 C 
ATOM    174  H   UNL     1     142.238 167.405 192.224  0.00  0.00    +0.023 HD
ATOM    175  H   UNL     1     141.968 165.847 193.012  0.00  0.00    +0.023 HD
ATOM    176  H   UNL     1     140.873 166.387 191.756  0.00  0.00    +0.023 HD
ENDBRANCH 171 173
BRANCH 171 177
ATOM    177  C   UNL     1     141.957 165.103 189.842  0.00  0.00    +0.064 C 
ATOM    178  H   UNL     1     141.063 164.633 190.265  0.00  0.00    +0.060 HD
BRANCH 177 179
ATOM    179  O   UNL     1     141.527 166.186 189.015  0.00  0.00    -0.391 OA
ATOM    180  H   UNL     1     140.923 166.732 189.567  0.00  0.00    +0.210 HD
ENDBRANCH 177 179
BRANCH 177 181
ATOM    181  C   UNL     1     142.636 164.031 188.943  0.00  0.00    -0.017 C 
ATOM    182  H   UNL     1     143.514 163.649 189.480  0.00  0.00    +0.032 HD
BRANCH 181 183
ATOM    183  C   UNL     1     141.673 162.844 188.755  0.00  0.00    -0.060 C 
ATOM    184  H   UNL     1     140.820 162.908 189.439  0.00  0.00    +0.023 HD
ATOM    185  H   UNL     1     141.286 162.795 187.734  0.00  0.00    +0.023 HD
ATOM    186  H   UNL     1     142.179 161.896 188.946  0.00  0.00    +0.023 HD
ENDBRANCH 181 183
BRANCH 181 187
ATOM    187  C   UNL     1     143.096 164.561 187.566  0.00  0.00    -0.046 C 
ATOM    188  H   UNL     1     144.080 165.034 187.654  0.00  0.00    +0.027 HD
ATOM    189  H   UNL     1     142.402 165.338 187.222  0.00  0.00    +0.027 HD
BRANCH 187 190
ATOM    190  C   UNL     1     143.205 163.446 186.511  0.00  0.00    -0.026 C 
ATOM    191  H   UNL     1     142.280 163.404 185.931  0.00  0.00    +0.029 HD
ATOM    192  H   UNL     1     143.298 162.479 187.020  0.00  0.00    +0.029 HD
BRANCH 190 193
ATOM    193  C   UNL     1     144.402 163.631 185.561  0.00  0.00    +0.061 C 
ATOM    194  O   UNL     1     144.581 162.520 184.679  0.00  0.00    -0.373 OA
ATOM    195  C   UNL     1     145.030 161.317 185.308  0.00  0.00    +0.059 C 
ATOM    196  C   UNL     1     146.363 161.535 186.020  0.00  0.00    -0.000 C 
ATOM    197  C   UNL     1     146.268 162.696 187.011  0.00  0.00    +0.063 C 
ATOM    198  C   UNL     1     145.704 163.930 186.305  0.00  0.00    -0.000 C 
ATOM    199  H   UNL     1     144.181 164.494 184.922  0.00  0.00    +0.060 HD
ATOM    200  H   UNL     1     144.270 160.973 186.019  0.00  0.00    +0.059 HD
ATOM    201  H   UNL     1     147.152 161.759 185.291  0.00  0.00    +0.032 HD
ATOM    202  H   UNL     1     146.669 160.615 186.531  0.00  0.00    +0.032 HD
ATOM    203  H   UNL     1     145.610 162.427 187.846  0.00  0.00    +0.060 HD
ATOM    204  H   UNL     1     146.454 164.285 185.584  0.00  0.00    +0.032 HD
ATOM    205  H   UNL     1     145.574 164.750 187.023  0.00  0.00    +0.032 HD
BRANCH 195 206
ATOM    206  C   UNL     1     145.164 160.257 184.220  0.00  0.00    -0.039 C 
ATOM    207  H   UNL     1     144.174 159.927 183.887  0.00  0.00    +0.025 HD
ATOM    208  H   UNL     1     145.719 159.387 184.582  0.00  0.00    +0.025 HD
ATOM    209  H   UNL     1     145.674 160.662 183.340  0.00  0.00    +0.025 HD
ENDBRANCH 195 206
BRANCH 197 210
ATOM    210  O   UNL     1     147.555 163.054 187.529  0.00  0.00    -0.380 OA
BRANCH 210 211
ATOM    211  C   UNL     1     148.000 164.342 187.122  0.00  0.00    +0.037 C 
ATOM    212  H   UNL     1     148.836 164.207 186.428  0.00  0.00    +0.052 HD
ATOM    213  H   UNL     1     148.359 164.921 187.977  0.00  0.00    +0.052 HD
ATOM    214  H   UNL     1     147.202 164.882 186.605  0.00  0.00    +0.052 HD
ENDBRANCH 210 211
ENDBRANCH 197 210
ENDBRANCH 190 193
ENDBRANCH 187 190
ENDBRANCH 181 187
ENDBRANCH 177 181
ENDBRANCH 171 177
ENDBRANCH  22 171
BRANCH  20 215
ATOM    215  O   UNL     1     146.407 168.483 190.764  0.00  0.00    -0.391 OA
ATOM    216  H   UNL     1     147.168 168.557 191.369  0.00  0.00    +0.210 HD
ENDBRANCH  20 215
BRANCH  18 217
ATOM    217  O   UNL     1     147.582 169.495 188.600  0.00  0.00    -0.391 OA
ATOM    218  H   UNL     1     147.185 170.041 187.890  0.00  0.00    +0.210 HD
ENDBRANCH  18 217
BRANCH  10 219
ATOM    219  O   UNL     1     142.845 163.916 182.358  0.00  0.00    -0.391 OA
ATOM    220  H   UNL     1     142.688 163.387 181.555  0.00  0.00    +0.210 HD
ENDBRANCH  10 219
BRANCH  37 221
ATOM    221  O   UNL     1     133.166 172.227 192.989  0.00  0.00    -0.379 OA
BRANCH 221 222
ATOM    222  C   UNL     1     131.850 172.419 192.488  0.00  0.00    +0.037 C 
ATOM    223  H   UNL     1     131.580 173.467 192.645  0.00  0.00    +0.052 HD
ATOM    224  H   UNL     1     131.802 172.214 191.417  0.00  0.00    +0.052 HD
ATOM    225  H   UNL     1     131.134 171.791 193.027  0.00  0.00    +0.052 HD
ENDBRANCH 221 222
ENDBRANCH  37 221
BRANCH  16 226
ATOM    226  O   UNL     1     147.013 170.059 185.115  0.00  0.00    -0.379 OA
BRANCH 226 227
ATOM    227  C   UNL     1     146.498 171.299 185.584  0.00  0.00    +0.037 C 
ATOM    228  H   UNL     1     146.077 171.896 184.769  0.00  0.00    +0.052 HD
ATOM    229  H   UNL     1     147.293 171.860 186.088  0.00  0.00    +0.052 HD
ATOM    230  H   UNL     1     145.703 171.093 186.308  0.00  0.00    +0.052 HD
ENDBRANCH 226 227
ENDBRANCH  16 226
TORSDOF 40
ENDMDL
