MODEL 1
REMARK VINA RESULT:      -6.1      0.000      0.000
REMARK  Name = Ulapualide A_conf3
REMARK  27 active torsions:
REMARK  status: ('A' for Active; 'I' for Inactive)
REMARK    1  A    between atoms: C_1  and  C_2
REMARK    2  A    between atoms: C_9  and  O_63
REMARK    3  A    between atoms: C_14  and  C_38
REMARK    4  A    between atoms: C_15  and  C_37
REMARK    5  A    between atoms: C_16  and  O_35
REMARK    6  A    between atoms: O_35  and  C_36
REMARK    7  A    between atoms: C_38  and  C_39
REMARK    8  A    between atoms: C_39  and  C_40
REMARK    9  A    between atoms: C_39  and  O_61
REMARK   10  A    between atoms: C_40  and  C_41
REMARK   11  A    between atoms: C_40  and  C_42
REMARK   12  A    between atoms: C_42  and  C_43
REMARK   13  A    between atoms: C_43  and  C_44
REMARK   14  A    between atoms: C_44  and  C_46
REMARK   15  A    between atoms: C_46  and  C_47
REMARK   16  A    between atoms: C_46  and  C_48
REMARK   17  A    between atoms: C_48  and  C_49
REMARK   18  A    between atoms: C_48  and  O_57
REMARK   19  A    between atoms: C_49  and  C_50
REMARK   20  A    between atoms: C_49  and  C_51
REMARK   21  A    between atoms: C_52  and  N_53
REMARK   22  A    between atoms: N_53  and  C_54
REMARK   23  A    between atoms: N_53  and  C_55
REMARK   24  A    between atoms: C_55  and  O_56
REMARK   25  A    between atoms: O_57  and  C_58
REMARK   26  A    between atoms: C_58  and  C_60
REMARK   27  A    between atoms: O_61  and  C_62
REMARK                            x       y       z     vdW  Elec       q    Type
REMARK                         _______ _______ _______ _____ _____    ______ ____
ROOT
ATOM      1  C   UNL     1     153.498 166.575 187.129  0.00  0.00    +0.008 C 
ATOM      2  C   UNL     1     153.426 165.192 186.471  0.00  0.00    +0.014 C 
ATOM      3  C   UNL     1     152.103 164.480 186.704  0.00  0.00    +0.134 C 
ATOM      4  O   UNL     1     152.075 163.363 187.225  0.00  0.00    -0.297 OA
ATOM      5  C   UNL     1     150.852 165.178 186.195  0.00  0.00    +0.006 C 
ATOM      6  C   UNL     1     149.616 164.279 186.180  0.00  0.00    -0.044 C 
ATOM      7  C   UNL     1     148.468 164.964 185.436  0.00  0.00    -0.026 C 
ATOM      8  C   UNL     1     147.194 164.121 185.352  0.00  0.00    +0.065 C 
ATOM      9  C   UNL     1     146.544 163.773 186.687  0.00  0.00    +0.071 C 
ATOM     10  C   UNL     1     146.141 165.001 187.461  0.00  0.00    +0.310 C 
ATOM     11  O   UNL     1     146.897 165.648 188.171  0.00  0.00    -0.251 OA
ATOM     12  O   UNL     1     144.829 165.282 187.231  0.00  0.00    -0.461 OA
ATOM     13  C   UNL     1     144.227 166.358 187.986  0.00  0.00    +0.110 C 
ATOM     14  C   UNL     1     143.229 165.734 189.010  0.00  0.00    +0.020 C 
ATOM     15  C   UNL     1     143.896 164.836 190.106  0.00  0.00    +0.068 C 
ATOM     16  C   UNL     1     144.913 165.583 191.018  0.00  0.00    -0.008 C 
ATOM     17  C   UNL     1     144.318 165.922 192.365  0.00  0.00    -0.077 C 
ATOM     18  C   UNL     1     144.947 166.133 193.535  0.00  0.00    -0.003 C 
ATOM     19  C   UNL     1     146.353 166.131 193.746  0.00  0.00    +0.220 A 
ATOM     20  N   UNL     1     147.333 166.187 192.851  0.00  0.00    -0.205 NA
ATOM     21  C   UNL     1     148.498 166.179 193.582  0.00  0.00    +0.164 A 
ATOM     22  C   UNL     1     148.198 166.121 194.916  0.00  0.00    +0.125 A 
ATOM     23  O   UNL     1     146.849 166.097 195.042  0.00  0.00    -0.443 OA
ATOM     24  C   UNL     1     149.966 166.227 193.048  0.00  0.00    +0.250 A 
ATOM     25  N   UNL     1     150.322 166.327 191.778  0.00  0.00    -0.203 NA
ATOM     26  C   UNL     1     151.699 166.294 191.809  0.00  0.00    +0.164 A 
ATOM     27  C   UNL     1     152.132 166.193 193.105  0.00  0.00    +0.125 A 
ATOM     28  O   UNL     1     151.041 166.161 193.912  0.00  0.00    -0.442 OA
ATOM     29  C   UNL     1     152.678 166.354 190.591  0.00  0.00    +0.249 A 
ATOM     30  N   UNL     1     152.317 166.497 189.327  0.00  0.00    -0.212 NA
ATOM     31  C   UNL     1     153.499 166.469 188.620  0.00  0.00    +0.083 A 
ATOM     32  C   UNL     1     154.546 166.313 189.497  0.00  0.00    +0.116 A 
ATOM     33  O   UNL     1     154.043 166.252 190.755  0.00  0.00    -0.442 OA
ATOM     34  H   UNL     1     152.618 167.164 186.841  0.00  0.00    +0.037 HD
ATOM     35  H   UNL     1     154.231 164.545 186.841  0.00  0.00    +0.035 HD
ATOM     36  H   UNL     1     153.555 165.270 185.385  0.00  0.00    +0.035 HD
ATOM     37  H   UNL     1     151.070 165.515 185.176  0.00  0.00    +0.034 HD
ATOM     38  H   UNL     1     150.657 166.053 186.822  0.00  0.00    +0.034 HD
ATOM     39  H   UNL     1     149.331 164.048 187.212  0.00  0.00    +0.027 HD
ATOM     40  H   UNL     1     149.851 163.325 185.692  0.00  0.00    +0.027 HD
ATOM     41  H   UNL     1     148.793 165.192 184.413  0.00  0.00    +0.029 HD
ATOM     42  H   UNL     1     148.250 165.941 185.889  0.00  0.00    +0.029 HD
ATOM     43  H   UNL     1     147.435 163.185 184.831  0.00  0.00    +0.060 HD
ATOM     44  H   UNL     1     145.647 163.165 186.520  0.00  0.00    +0.040 HD
ATOM     45  H   UNL     1     147.205 163.172 187.318  0.00  0.00    +0.040 HD
ATOM     46  H   UNL     1     144.974 166.947 188.522  0.00  0.00    +0.074 HD
ATOM     47  H   UNL     1     142.574 165.061 188.436  0.00  0.00    +0.036 HD
ATOM     48  H   UNL     1     143.071 164.447 190.720  0.00  0.00    +0.060 HD
ATOM     49  H   UNL     1     145.814 164.975 191.146  0.00  0.00    +0.033 HD
ATOM     50  H   UNL     1     145.234 166.521 190.558  0.00  0.00    +0.033 HD
ATOM     51  H   UNL     1     143.233 166.002 192.397  0.00  0.00    +0.057 HD
ATOM     52  H   UNL     1     144.343 166.329 194.416  0.00  0.00    +0.067 HD
ATOM     53  H   UNL     1     148.773 166.096 195.830  0.00  0.00    +0.105 HD
ATOM     54  H   UNL     1     153.097 166.139 193.585  0.00  0.00    +0.105 HD
ATOM     55  H   UNL     1     155.620 166.226 189.402  0.00  0.00    +0.105 HD
ENDROOT
BRANCH   1  56
ATOM     56  C   UNL     1     154.716 167.342 186.602  0.00  0.00    -0.056 C 
ATOM     57  H   UNL     1     155.633 167.001 187.096  0.00  0.00    +0.024 HD
ATOM     58  H   UNL     1     154.623 168.420 186.778  0.00  0.00    +0.024 HD
ATOM     59  H   UNL     1     154.842 167.188 185.526  0.00  0.00    +0.024 HD
ENDBRANCH   1  56
BRANCH  14  60
ATOM     60  C   UNL     1     142.334 166.787 189.681  0.00  0.00    -0.057 C 
ATOM     61  H   UNL     1     141.382 166.358 190.006  0.00  0.00    +0.023 HD
ATOM     62  H   UNL     1     142.826 167.232 190.551  0.00  0.00    +0.023 HD
ATOM     63  H   UNL     1     142.123 167.616 188.996  0.00  0.00    +0.023 HD
ENDBRANCH  14  60
BRANCH  13  64
ATOM     64  C   UNL     1     143.546 167.263 186.940  0.00  0.00    +0.011 C 
ATOM     65  H   UNL     1     142.492 167.396 187.200  0.00  0.00    +0.033 HD
ATOM     66  H   UNL     1     143.607 166.770 185.961  0.00  0.00    +0.033 HD
BRANCH  64  67
ATOM     67  C   UNL     1     144.181 168.670 186.840  0.00  0.00    +0.064 C 
ATOM     68  H   UNL     1     143.855 169.288 187.689  0.00  0.00    +0.060 HD
BRANCH  67  69
ATOM     69  C   UNL     1     145.736 168.605 186.874  0.00  0.00    -0.017 C 
ATOM     70  H   UNL     1     145.985 167.732 187.496  0.00  0.00    +0.032 HD
BRANCH  69  71
ATOM     71  C   UNL     1     146.372 168.354 185.500  0.00  0.00    -0.060 C 
ATOM     72  H   UNL     1     146.310 169.254 184.877  0.00  0.00    +0.023 HD
ATOM     73  H   UNL     1     145.880 167.532 184.969  0.00  0.00    +0.023 HD
ATOM     74  H   UNL     1     147.433 168.107 185.592  0.00  0.00    +0.023 HD
ENDBRANCH  69  71
BRANCH  69  75
ATOM     75  C   UNL     1     146.375 169.831 187.579  0.00  0.00    -0.041 C 
ATOM     76  H   UNL     1     147.017 170.369 186.871  0.00  0.00    +0.027 HD
ATOM     77  H   UNL     1     145.566 170.531 187.824  0.00  0.00    +0.027 HD
BRANCH  75  78
ATOM     78  C   UNL     1     147.150 169.536 188.868  0.00  0.00    +0.007 C 
ATOM     79  H   UNL     1     147.984 170.226 188.991  0.00  0.00    +0.034 HD
ATOM     80  H   UNL     1     147.579 168.527 188.851  0.00  0.00    +0.034 HD
BRANCH  78  81
ATOM     81  C   UNL     1     146.239 169.589 190.086  0.00  0.00    +0.140 C 
ATOM     82  O   UNL     1     146.573 169.014 191.122  0.00  0.00    -0.297 OA
BRANCH  81  83
ATOM     83  C   UNL     1     144.989 170.475 190.014  0.00  0.00    +0.052 C 
ATOM     84  H   UNL     1     144.731 170.498 188.946  0.00  0.00    +0.041 HD
BRANCH  83  85
ATOM     85  C   UNL     1     143.784 169.869 190.733  0.00  0.00    -0.052 C 
ATOM     86  H   UNL     1     144.087 169.104 191.452  0.00  0.00    +0.024 HD
ATOM     87  H   UNL     1     143.107 169.392 190.018  0.00  0.00    +0.024 HD
ATOM     88  H   UNL     1     143.194 170.629 191.252  0.00  0.00    +0.024 HD
ENDBRANCH  83  85
BRANCH  83  89
ATOM     89  C   UNL     1     145.267 171.939 190.452  0.00  0.00    +0.118 C 
ATOM     90  H   UNL     1     145.402 172.582 189.571  0.00  0.00    +0.075 HD
BRANCH  89  91
ATOM     91  C   UNL     1     146.482 172.157 191.411  0.00  0.00    +0.014 C 
ATOM     92  H   UNL     1     146.594 171.247 192.002  0.00  0.00    +0.038 HD
BRANCH  91  93
ATOM     93  C   UNL     1     146.172 173.274 192.422  0.00  0.00    -0.056 C 
ATOM     94  H   UNL     1     145.231 173.783 192.181  0.00  0.00    +0.024 HD
ATOM     95  H   UNL     1     146.969 174.029 192.429  0.00  0.00    +0.024 HD
ATOM     96  H   UNL     1     146.089 172.878 193.438  0.00  0.00    +0.024 HD
ENDBRANCH  91  93
BRANCH  91  97
ATOM     97  C   UNL     1     147.765 172.503 190.700  0.00  0.00    -0.064 C 
ATOM     98  C   UNL     1     149.033 172.239 191.035  0.00  0.00    -0.010 C 
ATOM     99  H   UNL     1     147.620 173.008 189.744  0.00  0.00    +0.059 HD
ATOM    100  H   UNL     1     149.784 172.528 190.292  0.00  0.00    +0.078 HD
BRANCH  98 101
ATOM    101  N   UNL     1     149.628 171.649 192.136  0.00  0.00    -0.317 N 
BRANCH 101 102
ATOM    102  C   UNL     1     149.565 172.177 193.496  0.00  0.00    +0.002 C 
ATOM    103  H   UNL     1     149.994 171.467 194.213  0.00  0.00    +0.043 HD
ATOM    104  H   UNL     1     148.529 172.348 193.812  0.00  0.00    +0.043 HD
ATOM    105  H   UNL     1     150.091 173.133 193.562  0.00  0.00    +0.043 HD
ENDBRANCH 101 102
BRANCH 101 106
ATOM    106  C   UNL     1     150.409 170.430 192.001  0.00  0.00    +0.110 C 
ATOM    107  H   UNL     1     150.689 170.010 192.972  0.00  0.00    +0.077 HD
ATOM    108  H   UNL     1     151.329 170.603 191.434  0.00  0.00    +0.077 HD
BRANCH 106 109
ATOM    109  O   UNL     1     149.598 169.506 191.314  0.00  0.00    -0.377 OA
ATOM    110  H   UNL     1     150.184 168.731 191.282  0.00  0.00    +0.211 HD
ENDBRANCH 106 109
ENDBRANCH 101 106
ENDBRANCH  98 101
ENDBRANCH  91  97
ENDBRANCH  89  91
BRANCH  89 111
ATOM    111  O   UNL     1     144.095 172.400 191.191  0.00  0.00    -0.460 OA
BRANCH 111 112
ATOM    112  C   UNL     1     143.210 173.185 190.523  0.00  0.00    +0.304 C 
ATOM    113  O   UNL     1     143.138 173.305 189.309  0.00  0.00    -0.251 OA
BRANCH 112 114
ATOM    114  C   UNL     1     142.278 173.853 191.491  0.00  0.00    +0.033 C 
ATOM    115  H   UNL     1     142.734 174.762 191.899  0.00  0.00    +0.034 HD
ATOM    116  H   UNL     1     142.046 173.165 192.308  0.00  0.00    +0.034 HD
ATOM    117  H   UNL     1     141.363 174.145 190.968  0.00  0.00    +0.034 HD
ENDBRANCH 112 114
ENDBRANCH 111 112
ENDBRANCH  89 111
ENDBRANCH  83  89
ENDBRANCH  81  83
ENDBRANCH  78  81
ENDBRANCH  75  78
ENDBRANCH  69  75
ENDBRANCH  67  69
BRANCH  67 118
ATOM    118  O   UNL     1     143.761 169.255 185.599  0.00  0.00    -0.379 OA
BRANCH 118 119
ATOM    119  C   UNL     1     142.611 168.625 185.045  0.00  0.00    +0.037 C 
ATOM    120  H   UNL     1     142.005 169.393 184.555  0.00  0.00    +0.052 HD
ATOM    121  H   UNL     1     142.013 168.155 185.830  0.00  0.00    +0.052 HD
ATOM    122  H   UNL     1     142.888 167.885 184.295  0.00  0.00    +0.052 HD
ENDBRANCH 118 119
ENDBRANCH  67 118
ENDBRANCH  64  67
ENDBRANCH  13  64
BRANCH   8 123
ATOM    123  O   UNL     1     146.269 164.820 184.512  0.00  0.00    -0.391 OA
ATOM    124  H   UNL     1     145.948 165.597 185.001  0.00  0.00    +0.210 HD
ENDBRANCH   8 123
BRANCH  15 125
ATOM    125  O   UNL     1     144.481 163.689 189.466  0.00  0.00    -0.379 OA
BRANCH 125 126
ATOM    126  C   UNL     1     143.536 162.680 189.123  0.00  0.00    +0.037 C 
ATOM    127  H   UNL     1     142.520 163.087 189.090  0.00  0.00    +0.052 HD
ATOM    128  H   UNL     1     143.583 161.845 189.824  0.00  0.00    +0.052 HD
ATOM    129  H   UNL     1     143.785 162.308 188.128  0.00  0.00    +0.052 HD
ENDBRANCH 125 126
ENDBRANCH  15 125
TORSDOF 27
ENDMDL
MODEL 2
REMARK VINA RESULT:      -6.0      3.088      6.378
REMARK  Name = Ulapualide A_conf3
REMARK  27 active torsions:
REMARK  status: ('A' for Active; 'I' for Inactive)
REMARK    1  A    between atoms: C_1  and  C_2
REMARK    2  A    between atoms: C_9  and  O_63
REMARK    3  A    between atoms: C_14  and  C_38
REMARK    4  A    between atoms: C_15  and  C_37
REMARK    5  A    between atoms: C_16  and  O_35
REMARK    6  A    between atoms: O_35  and  C_36
REMARK    7  A    between atoms: C_38  and  C_39
REMARK    8  A    between atoms: C_39  and  C_40
REMARK    9  A    between atoms: C_39  and  O_61
REMARK   10  A    between atoms: C_40  and  C_41
REMARK   11  A    between atoms: C_40  and  C_42
REMARK   12  A    between atoms: C_42  and  C_43
REMARK   13  A    between atoms: C_43  and  C_44
REMARK   14  A    between atoms: C_44  and  C_46
REMARK   15  A    between atoms: C_46  and  C_47
REMARK   16  A    between atoms: C_46  and  C_48
REMARK   17  A    between atoms: C_48  and  C_49
REMARK   18  A    between atoms: C_48  and  O_57
REMARK   19  A    between atoms: C_49  and  C_50
REMARK   20  A    between atoms: C_49  and  C_51
REMARK   21  A    between atoms: C_52  and  N_53
REMARK   22  A    between atoms: N_53  and  C_54
REMARK   23  A    between atoms: N_53  and  C_55
REMARK   24  A    between atoms: C_55  and  O_56
REMARK   25  A    between atoms: O_57  and  C_58
REMARK   26  A    between atoms: C_58  and  C_60
REMARK   27  A    between atoms: O_61  and  C_62
REMARK                            x       y       z     vdW  Elec       q    Type
REMARK                         _______ _______ _______ _____ _____    ______ ____
ROOT
ATOM      1  C   UNL     1     155.485 165.433 189.559  0.00  0.00    +0.008 C 
ATOM      2  C   UNL     1     155.573 166.170 188.217  0.00  0.00    +0.014 C 
ATOM      3  C   UNL     1     154.344 165.980 187.342  0.00  0.00    +0.134 C 
ATOM      4  O   UNL     1     154.451 165.525 186.202  0.00  0.00    -0.297 OA
ATOM      5  C   UNL     1     153.017 166.449 187.916  0.00  0.00    +0.006 C 
ATOM      6  C   UNL     1     151.895 166.518 186.880  0.00  0.00    -0.044 C 
ATOM      7  C   UNL     1     150.671 167.222 187.466  0.00  0.00    -0.026 C 
ATOM      8  C   UNL     1     149.504 167.357 186.486  0.00  0.00    +0.065 C 
ATOM      9  C   UNL     1     148.907 166.046 185.988  0.00  0.00    +0.071 C 
ATOM     10  C   UNL     1     148.366 165.202 187.112  0.00  0.00    +0.310 C 
ATOM     11  O   UNL     1     149.045 164.455 187.802  0.00  0.00    -0.251 OA
ATOM     12  O   UNL     1     147.030 165.417 187.250  0.00  0.00    -0.461 OA
ATOM     13  C   UNL     1     146.310 164.602 188.202  0.00  0.00    +0.110 C 
ATOM     14  C   UNL     1     145.397 163.616 187.406  0.00  0.00    +0.020 C 
ATOM     15  C   UNL     1     146.171 162.574 186.532  0.00  0.00    +0.068 C 
ATOM     16  C   UNL     1     147.099 161.619 187.339  0.00  0.00    -0.008 C 
ATOM     17  C   UNL     1     146.475 160.256 187.528  0.00  0.00    -0.077 C 
ATOM     18  C   UNL     1     147.081 159.074 187.744  0.00  0.00    -0.003 C 
ATOM     19  C   UNL     1     148.479 158.862 187.895  0.00  0.00    +0.220 A 
ATOM     20  N   UNL     1     149.440 159.751 188.118  0.00  0.00    -0.205 NA
ATOM     21  C   UNL     1     150.602 159.020 188.205  0.00  0.00    +0.164 A 
ATOM     22  C   UNL     1     150.319 157.692 188.035  0.00  0.00    +0.125 A 
ATOM     23  O   UNL     1     148.983 157.569 187.846  0.00  0.00    -0.443 OA
ATOM     24  C   UNL     1     152.051 159.548 188.457  0.00  0.00    +0.250 A 
ATOM     25  N   UNL     1     152.386 160.810 188.671  0.00  0.00    -0.203 NA
ATOM     26  C   UNL     1     153.758 160.780 188.799  0.00  0.00    +0.164 A 
ATOM     27  C   UNL     1     154.206 159.491 188.675  0.00  0.00    +0.125 A 
ATOM     28  O   UNL     1     153.132 158.688 188.468  0.00  0.00    -0.442 OA
ATOM     29  C   UNL     1     154.716 161.991 189.044  0.00  0.00    +0.249 A 
ATOM     30  N   UNL     1     154.334 163.245 189.215  0.00  0.00    -0.212 NA
ATOM     31  C   UNL     1     155.507 163.950 189.368  0.00  0.00    +0.083 A 
ATOM     32  C   UNL     1     156.570 163.083 189.286  0.00  0.00    +0.116 A 
ATOM     33  O   UNL     1     156.085 161.831 189.094  0.00  0.00    -0.442 OA
ATOM     34  H   UNL     1     154.540 165.687 190.056  0.00  0.00    +0.037 HD
ATOM     35  H   UNL     1     156.450 165.837 187.650  0.00  0.00    +0.035 HD
ATOM     36  H   UNL     1     155.686 167.250 188.373  0.00  0.00    +0.035 HD
ATOM     37  H   UNL     1     153.188 167.447 188.334  0.00  0.00    +0.034 HD
ATOM     38  H   UNL     1     152.724 165.773 188.725  0.00  0.00    +0.034 HD
ATOM     39  H   UNL     1     151.645 165.502 186.558  0.00  0.00    +0.027 HD
ATOM     40  H   UNL     1     152.238 167.060 185.990  0.00  0.00    +0.027 HD
ATOM     41  H   UNL     1     150.961 168.231 187.790  0.00  0.00    +0.029 HD
ATOM     42  H   UNL     1     150.342 166.715 188.383  0.00  0.00    +0.029 HD
ATOM     43  H   UNL     1     149.850 167.931 185.617  0.00  0.00    +0.060 HD
ATOM     44  H   UNL     1     148.087 166.249 185.289  0.00  0.00    +0.040 HD
ATOM     45  H   UNL     1     149.637 165.449 185.433  0.00  0.00    +0.040 HD
ATOM     46  H   UNL     1     146.984 164.031 188.842  0.00  0.00    +0.074 HD
ATOM     47  H   UNL     1     144.823 164.230 186.695  0.00  0.00    +0.036 HD
ATOM     48  H   UNL     1     145.401 161.985 186.014  0.00  0.00    +0.060 HD
ATOM     49  H   UNL     1     148.065 161.525 186.836  0.00  0.00    +0.033 HD
ATOM     50  H   UNL     1     147.304 162.023 188.334  0.00  0.00    +0.033 HD
ATOM     51  H   UNL     1     145.389 160.220 187.477  0.00  0.00    +0.057 HD
ATOM     52  H   UNL     1     146.463 158.184 187.816  0.00  0.00    +0.067 HD
ATOM     53  H   UNL     1     150.898 156.781 188.026  0.00  0.00    +0.105 HD
ATOM     54  H   UNL     1     155.174 159.014 188.708  0.00  0.00    +0.105 HD
ATOM     55  H   UNL     1     157.646 163.181 189.332  0.00  0.00    +0.105 HD
ENDROOT
BRANCH   1  56
ATOM     56  C   UNL     1     156.601 165.913 190.493  0.00  0.00    -0.056 C 
ATOM     57  H   UNL     1     157.168 166.730 190.034  0.00  0.00    +0.024 HD
ATOM     58  H   UNL     1     157.307 165.108 190.728  0.00  0.00    +0.024 HD
ATOM     59  H   UNL     1     156.191 166.284 191.438  0.00  0.00    +0.024 HD
ENDBRANCH   1  56
BRANCH  14  60
ATOM     60  C   UNL     1     144.388 162.887 188.306  0.00  0.00    -0.057 C 
ATOM     61  H   UNL     1     144.799 161.951 188.694  0.00  0.00    +0.023 HD
ATOM     62  H   UNL     1     144.088 163.509 189.154  0.00  0.00    +0.023 HD
ATOM     63  H   UNL     1     143.467 162.659 187.759  0.00  0.00    +0.023 HD
ENDBRANCH  14  60
BRANCH  13  64
ATOM     64  C   UNL     1     145.521 165.594 189.079  0.00  0.00    +0.011 C 
ATOM     65  H   UNL     1     144.467 165.589 188.783  0.00  0.00    +0.033 HD
ATOM     66  H   UNL     1     145.926 166.602 188.915  0.00  0.00    +0.033 HD
BRANCH  64  67
ATOM     67  C   UNL     1     145.581 165.262 190.588  0.00  0.00    +0.064 C 
ATOM     68  H   UNL     1     146.084 164.296 190.738  0.00  0.00    +0.060 HD
BRANCH  67  69
ATOM     69  C   UNL     1     146.380 166.337 191.384  0.00  0.00    -0.017 C 
ATOM     70  H   UNL     1     147.441 166.126 191.188  0.00  0.00    +0.032 HD
BRANCH  69  71
ATOM     71  C   UNL     1     146.127 167.772 190.902  0.00  0.00    -0.060 C 
ATOM     72  H   UNL     1     145.065 168.027 190.993  0.00  0.00    +0.023 HD
ATOM     73  H   UNL     1     146.427 167.908 189.857  0.00  0.00    +0.023 HD
ATOM     74  H   UNL     1     146.679 168.497 191.507  0.00  0.00    +0.023 HD
ENDBRANCH  69  71
BRANCH  69  75
ATOM     75  C   UNL     1     146.192 166.213 192.919  0.00  0.00    -0.041 C 
ATOM     76  H   UNL     1     145.208 166.604 193.202  0.00  0.00    +0.027 HD
ATOM     77  H   UNL     1     146.158 165.143 193.163  0.00  0.00    +0.027 HD
BRANCH  75  78
ATOM     78  C   UNL     1     147.280 166.860 193.783  0.00  0.00    +0.007 C 
ATOM     79  H   UNL     1     146.870 167.222 194.725  0.00  0.00    +0.034 HD
ATOM     80  H   UNL     1     147.722 167.728 193.280  0.00  0.00    +0.034 HD
BRANCH  78  81
ATOM     81  C   UNL     1     148.426 165.894 194.045  0.00  0.00    +0.140 C 
ATOM     82  O   UNL     1     148.272 164.692 193.827  0.00  0.00    -0.297 OA
BRANCH  81  83
ATOM     83  C   UNL     1     149.785 166.479 194.452  0.00  0.00    +0.052 C 
ATOM     84  H   UNL     1     149.533 167.379 195.030  0.00  0.00    +0.041 HD
BRANCH  83  85
ATOM     85  C   UNL     1     150.570 165.568 195.396  0.00  0.00    -0.052 C 
ATOM     86  H   UNL     1     150.822 164.617 194.921  0.00  0.00    +0.024 HD
ATOM     87  H   UNL     1     149.982 165.339 196.289  0.00  0.00    +0.024 HD
ATOM     88  H   UNL     1     151.490 166.043 195.748  0.00  0.00    +0.024 HD
ENDBRANCH  83  85
BRANCH  83  89
ATOM     89  C   UNL     1     150.629 166.937 193.231  0.00  0.00    +0.118 C 
ATOM     90  H   UNL     1     151.649 167.194 193.547  0.00  0.00    +0.075 HD
BRANCH  89  91
ATOM     91  C   UNL     1     150.056 168.132 192.401  0.00  0.00    +0.014 C 
ATOM     92  H   UNL     1     149.122 168.437 192.875  0.00  0.00    +0.038 HD
BRANCH  91  93
ATOM     93  C   UNL     1     149.673 167.667 190.987  0.00  0.00    -0.056 C 
ATOM     94  H   UNL     1     149.602 168.513 190.292  0.00  0.00    +0.024 HD
ATOM     95  H   UNL     1     148.702 167.155 190.991  0.00  0.00    +0.024 HD
ATOM     96  H   UNL     1     150.410 166.965 190.586  0.00  0.00    +0.024 HD
ENDBRANCH  91  93
BRANCH  91  97
ATOM     97  C   UNL     1     151.005 169.297 192.276  0.00  0.00    -0.064 C 
ATOM     98  C   UNL     1     150.758 170.612 192.264  0.00  0.00    -0.010 C 
ATOM     99  H   UNL     1     152.057 169.010 192.235  0.00  0.00    +0.059 HD
ATOM    100  H   UNL     1     151.643 171.256 192.250  0.00  0.00    +0.078 HD
BRANCH  98 101
ATOM    101  N   UNL     1     149.598 171.366 192.281  0.00  0.00    -0.317 N 
BRANCH 101 102
ATOM    102  C   UNL     1     149.224 172.290 193.349  0.00  0.00    +0.002 C 
ATOM    103  H   UNL     1     150.112 172.741 193.806  0.00  0.00    +0.043 HD
ATOM    104  H   UNL     1     148.688 171.775 194.155  0.00  0.00    +0.043 HD
ATOM    105  H   UNL     1     148.567 173.074 192.965  0.00  0.00    +0.043 HD
ENDBRANCH 101 102
BRANCH 101 106
ATOM    106  C   UNL     1     148.624 171.265 191.207  0.00  0.00    +0.110 C 
ATOM    107  H   UNL     1     148.877 170.472 190.496  0.00  0.00    +0.077 HD
ATOM    108  H   UNL     1     148.543 172.202 190.647  0.00  0.00    +0.077 HD
BRANCH 106 109
ATOM    109  O   UNL     1     147.388 170.967 191.811  0.00  0.00    -0.377 OA
ATOM    110  H   UNL     1     146.922 171.814 191.710  0.00  0.00    +0.211 HD
ENDBRANCH 106 109
ENDBRANCH 101 106
ENDBRANCH  98 101
ENDBRANCH  91  97
ENDBRANCH  89  91
BRANCH  89 111
ATOM    111  O   UNL     1     150.696 165.811 192.303  0.00  0.00    -0.460 OA
BRANCH 111 112
ATOM    112  C   UNL     1     151.918 165.491 191.804  0.00  0.00    +0.304 C 
ATOM    113  O   UNL     1     152.126 164.836 190.795  0.00  0.00    -0.251 OA
BRANCH 112 114
ATOM    114  C   UNL     1     152.997 166.111 192.643  0.00  0.00    +0.033 C 
ATOM    115  H   UNL     1     152.561 166.681 193.471  0.00  0.00    +0.034 HD
ATOM    116  H   UNL     1     153.603 166.778 192.024  0.00  0.00    +0.034 HD
ATOM    117  H   UNL     1     153.619 165.321 193.072  0.00  0.00    +0.034 HD
ENDBRANCH 112 114
ENDBRANCH 111 112
ENDBRANCH  89 111
ENDBRANCH  83  89
ENDBRANCH  81  83
ENDBRANCH  78  81
ENDBRANCH  75  78
ENDBRANCH  69  75
ENDBRANCH  67  69
BRANCH  67 118
ATOM    118  O   UNL     1     144.235 165.213 191.083  0.00  0.00    -0.379 OA
BRANCH 118 119
ATOM    119  C   UNL     1     143.287 165.772 190.179  0.00  0.00    +0.037 C 
ATOM    120  H   UNL     1     143.648 165.602 189.161  0.00  0.00    +0.052 HD
ATOM    121  H   UNL     1     143.188 166.849 190.341  0.00  0.00    +0.052 HD
ATOM    122  H   UNL     1     142.315 165.290 190.277  0.00  0.00    +0.052 HD
ENDBRANCH 118 119
ENDBRANCH  67 118
ENDBRANCH  64  67
ENDBRANCH  13  64
BRANCH   8 123
ATOM    123  O   UNL     1     148.499 168.157 187.118  0.00  0.00    -0.391 OA
ATOM    124  H   UNL     1     147.906 167.560 187.608  0.00  0.00    +0.210 HD
ENDBRANCH   8 123
BRANCH  15 125
ATOM    125  O   UNL     1     146.884 163.279 185.500  0.00  0.00    -0.379 OA
BRANCH 125 126
ATOM    126  C   UNL     1     147.740 162.445 184.725  0.00  0.00    +0.037 C 
ATOM    127  H   UNL     1     148.789 162.736 184.847  0.00  0.00    +0.052 HD
ATOM    128  H   UNL     1     147.463 162.473 183.670  0.00  0.00    +0.052 HD
ATOM    129  H   UNL     1     147.628 161.420 185.083  0.00  0.00    +0.052 HD
ENDBRANCH 125 126
ENDBRANCH  15 125
TORSDOF 27
ENDMDL
MODEL 3
REMARK VINA RESULT:      -5.8      2.428      7.646
REMARK  Name = Ulapualide A_conf3
REMARK  27 active torsions:
REMARK  status: ('A' for Active; 'I' for Inactive)
REMARK    1  A    between atoms: C_1  and  C_2
REMARK    2  A    between atoms: C_9  and  O_63
REMARK    3  A    between atoms: C_14  and  C_38
REMARK    4  A    between atoms: C_15  and  C_37
REMARK    5  A    between atoms: C_16  and  O_35
REMARK    6  A    between atoms: O_35  and  C_36
REMARK    7  A    between atoms: C_38  and  C_39
REMARK    8  A    between atoms: C_39  and  C_40
REMARK    9  A    between atoms: C_39  and  O_61
REMARK   10  A    between atoms: C_40  and  C_41
REMARK   11  A    between atoms: C_40  and  C_42
REMARK   12  A    between atoms: C_42  and  C_43
REMARK   13  A    between atoms: C_43  and  C_44
REMARK   14  A    between atoms: C_44  and  C_46
REMARK   15  A    between atoms: C_46  and  C_47
REMARK   16  A    between atoms: C_46  and  C_48
REMARK   17  A    between atoms: C_48  and  C_49
REMARK   18  A    between atoms: C_48  and  O_57
REMARK   19  A    between atoms: C_49  and  C_50
REMARK   20  A    between atoms: C_49  and  C_51
REMARK   21  A    between atoms: C_52  and  N_53
REMARK   22  A    between atoms: N_53  and  C_54
REMARK   23  A    between atoms: N_53  and  C_55
REMARK   24  A    between atoms: C_55  and  O_56
REMARK   25  A    between atoms: O_57  and  C_58
REMARK   26  A    between atoms: C_58  and  C_60
REMARK   27  A    between atoms: O_61  and  C_62
REMARK                            x       y       z     vdW  Elec       q    Type
REMARK                         _______ _______ _______ _____ _____    ______ ____
ROOT
ATOM      1  C   UNL     1     151.361 166.729 192.865  0.00  0.00    +0.008 C 
ATOM      2  C   UNL     1     152.237 167.987 192.850  0.00  0.00    +0.014 C 
ATOM      3  C   UNL     1     151.636 169.134 192.052  0.00  0.00    +0.134 C 
ATOM      4  O   UNL     1     152.261 169.644 191.121  0.00  0.00    -0.297 OA
ATOM      5  C   UNL     1     150.283 169.651 192.513  0.00  0.00    +0.006 C 
ATOM      6  C   UNL     1     149.891 170.984 191.875  0.00  0.00    -0.044 C 
ATOM      7  C   UNL     1     148.650 171.558 192.560  0.00  0.00    -0.026 C 
ATOM      8  C   UNL     1     148.200 172.908 191.998  0.00  0.00    +0.065 C 
ATOM      9  C   UNL     1     147.781 172.905 190.532  0.00  0.00    +0.071 C 
ATOM     10  C   UNL     1     146.622 171.977 190.272  0.00  0.00    +0.310 C 
ATOM     11  O   UNL     1     146.731 170.773 190.086  0.00  0.00    -0.251 OA
ATOM     12  O   UNL     1     145.455 172.676 190.299  0.00  0.00    -0.461 OA
ATOM     13  C   UNL     1     144.240 171.975 189.950  0.00  0.00    +0.110 C 
ATOM     14  C   UNL     1     143.755 172.505 188.564  0.00  0.00    +0.020 C 
ATOM     15  C   UNL     1     144.723 172.194 187.373  0.00  0.00    +0.068 C 
ATOM     16  C   UNL     1     144.951 170.676 187.108  0.00  0.00    -0.008 C 
ATOM     17  C   UNL     1     144.142 170.183 185.931  0.00  0.00    -0.077 C 
ATOM     18  C   UNL     1     144.379 169.129 185.129  0.00  0.00    -0.003 C 
ATOM     19  C   UNL     1     145.446 168.199 185.256  0.00  0.00    +0.220 A 
ATOM     20  N   UNL     1     146.259 167.995 186.286  0.00  0.00    -0.205 NA
ATOM     21  C   UNL     1     147.092 166.971 185.899  0.00  0.00    +0.164 A 
ATOM     22  C   UNL     1     146.762 166.570 184.633  0.00  0.00    +0.125 A 
ATOM     23  O   UNL     1     145.721 167.327 184.211  0.00  0.00    -0.443 OA
ATOM     24  C   UNL     1     148.251 166.315 186.718  0.00  0.00    +0.250 A 
ATOM     25  N   UNL     1     148.592 166.626 187.957  0.00  0.00    -0.203 NA
ATOM     26  C   UNL     1     149.674 165.816 188.224  0.00  0.00    +0.164 A 
ATOM     27  C   UNL     1     149.942 165.027 187.137  0.00  0.00    +0.125 A 
ATOM     28  O   UNL     1     149.037 165.320 186.169  0.00  0.00    -0.442 OA
ATOM     29  C   UNL     1     150.516 165.760 189.540  0.00  0.00    +0.249 A 
ATOM     30  N   UNL     1     150.275 166.465 190.633  0.00  0.00    -0.212 NA
ATOM     31  C   UNL     1     151.278 166.108 191.507  0.00  0.00    +0.083 A 
ATOM     32  C   UNL     1     152.097 165.184 190.904  0.00  0.00    +0.116 A 
ATOM     33  O   UNL     1     151.620 164.941 189.658  0.00  0.00    -0.442 OA
ATOM     34  H   UNL     1     150.341 166.996 193.168  0.00  0.00    +0.037 HD
ATOM     35  H   UNL     1     153.227 167.765 192.434  0.00  0.00    +0.035 HD
ATOM     36  H   UNL     1     152.397 168.362 193.869  0.00  0.00    +0.035 HD
ATOM     37  H   UNL     1     150.343 169.772 193.600  0.00  0.00    +0.034 HD
ATOM     38  H   UNL     1     149.521 168.900 192.283  0.00  0.00    +0.034 HD
ATOM     39  H   UNL     1     149.711 170.828 190.806  0.00  0.00    +0.027 HD
ATOM     40  H   UNL     1     150.719 171.699 191.959  0.00  0.00    +0.027 HD
ATOM     41  H   UNL     1     148.861 171.688 193.629  0.00  0.00    +0.029 HD
ATOM     42  H   UNL     1     147.824 170.834 192.521  0.00  0.00    +0.029 HD
ATOM     43  H   UNL     1     149.024 173.622 192.120  0.00  0.00    +0.060 HD
ATOM     44  H   UNL     1     147.484 173.915 190.225  0.00  0.00    +0.040 HD
ATOM     45  H   UNL     1     148.604 172.617 189.872  0.00  0.00    +0.040 HD
ATOM     46  H   UNL     1     144.395 170.897 189.890  0.00  0.00    +0.074 HD
ATOM     47  H   UNL     1     143.728 173.602 188.642  0.00  0.00    +0.036 HD
ATOM     48  H   UNL     1     144.266 172.655 186.485  0.00  0.00    +0.060 HD
ATOM     49  H   UNL     1     146.014 170.483 186.943  0.00  0.00    +0.033 HD
ATOM     50  H   UNL     1     144.658 170.081 187.977  0.00  0.00    +0.033 HD
ATOM     51  H   UNL     1     143.250 170.759 185.694  0.00  0.00    +0.057 HD
ATOM     52  H   UNL     1     143.700 168.951 184.300  0.00  0.00    +0.067 HD
ATOM     53  H   UNL     1     147.131 165.822 183.946  0.00  0.00    +0.105 HD
ATOM     54  H   UNL     1     150.673 164.267 186.907  0.00  0.00    +0.105 HD
ATOM     55  H   UNL     1     152.992 164.649 191.190  0.00  0.00    +0.105 HD
ENDROOT
BRANCH   1  56
ATOM     56  C   UNL     1     151.876 165.745 193.921  0.00  0.00    -0.056 C 
ATOM     57  H   UNL     1     152.607 166.229 194.579  0.00  0.00    +0.024 HD
ATOM     58  H   UNL     1     152.363 164.877 193.462  0.00  0.00    +0.024 HD
ATOM     59  H   UNL     1     151.057 165.377 194.547  0.00  0.00    +0.024 HD
ENDBRANCH   1  56
BRANCH  14  60
ATOM     60  C   UNL     1     142.337 172.032 188.213  0.00  0.00    -0.057 C 
ATOM     61  H   UNL     1     142.308 170.955 188.025  0.00  0.00    +0.023 HD
ATOM     62  H   UNL     1     141.630 172.260 189.016  0.00  0.00    +0.023 HD
ATOM     63  H   UNL     1     141.960 172.548 187.324  0.00  0.00    +0.023 HD
ENDBRANCH  14  60
BRANCH  13  64
ATOM     64  C   UNL     1     143.253 172.267 191.096  0.00  0.00    +0.011 C 
ATOM     65  H   UNL     1     143.327 173.319 191.387  0.00  0.00    +0.033 HD
ATOM     66  H   UNL     1     143.527 171.645 191.959  0.00  0.00    +0.033 HD
BRANCH  64  67
ATOM     67  C   UNL     1     141.777 171.992 190.721  0.00  0.00    +0.064 C 
ATOM     68  H   UNL     1     141.685 171.873 189.633  0.00  0.00    +0.060 HD
BRANCH  67  69
ATOM     69  C   UNL     1     141.249 170.685 191.383  0.00  0.00    -0.017 C 
ATOM     70  H   UNL     1     140.854 170.986 192.365  0.00  0.00    +0.032 HD
BRANCH  69  71
ATOM     71  C   UNL     1     140.079 170.041 190.625  0.00  0.00    -0.060 C 
ATOM     72  H   UNL     1     139.475 169.425 191.302  0.00  0.00    +0.023 HD
ATOM     73  H   UNL     1     140.429 169.408 189.802  0.00  0.00    +0.023 HD
ATOM     74  H   UNL     1     139.411 170.799 190.207  0.00  0.00    +0.023 HD
ENDBRANCH  69  71
BRANCH  69  75
ATOM     75  C   UNL     1     142.374 169.656 191.669  0.00  0.00    -0.041 C 
ATOM     76  H   UNL     1     143.352 170.141 191.564  0.00  0.00    +0.027 HD
ATOM     77  H   UNL     1     142.304 169.374 192.728  0.00  0.00    +0.027 HD
BRANCH  75  78
ATOM     78  C   UNL     1     142.337 168.371 190.835  0.00  0.00    +0.007 C 
ATOM     79  H   UNL     1     143.091 168.390 190.050  0.00  0.00    +0.034 HD
ATOM     80  H   UNL     1     141.369 168.250 190.335  0.00  0.00    +0.034 HD
BRANCH  78  81
ATOM     81  C   UNL     1     142.519 167.138 191.709  0.00  0.00    +0.140 C 
ATOM     82  O   UNL     1     141.641 166.275 191.736  0.00  0.00    -0.297 OA
BRANCH  81  83
ATOM     83  C   UNL     1     143.862 166.956 192.429  0.00  0.00    +0.052 C 
ATOM     84  H   UNL     1     144.015 167.902 192.966  0.00  0.00    +0.041 HD
BRANCH  83  85
ATOM     85  C   UNL     1     143.825 165.861 193.494  0.00  0.00    -0.052 C 
ATOM     86  H   UNL     1     144.607 165.115 193.332  0.00  0.00    +0.024 HD
ATOM     87  H   UNL     1     142.866 165.334 193.475  0.00  0.00    +0.024 HD
ATOM     88  H   UNL     1     143.929 166.270 194.503  0.00  0.00    +0.024 HD
ENDBRANCH  83  85
BRANCH  83  89
ATOM     89  C   UNL     1     145.050 166.787 191.444  0.00  0.00    +0.118 C 
ATOM     90  H   UNL     1     145.325 167.757 191.008  0.00  0.00    +0.075 HD
BRANCH  89  91
ATOM     91  C   UNL     1     144.847 165.764 190.280  0.00  0.00    +0.014 C 
ATOM     92  H   UNL     1     143.977 165.155 190.533  0.00  0.00    +0.038 HD
BRANCH  91  93
ATOM     93  C   UNL     1     146.032 164.787 190.212  0.00  0.00    -0.056 C 
ATOM     94  H   UNL     1     145.704 163.777 189.942  0.00  0.00    +0.024 HD
ATOM     95  H   UNL     1     146.546 164.725 191.180  0.00  0.00    +0.024 HD
ATOM     96  H   UNL     1     146.771 165.109 189.471  0.00  0.00    +0.024 HD
ENDBRANCH  91  93
BRANCH  91  97
ATOM     97  C   UNL     1     144.683 166.406 188.926  0.00  0.00    -0.064 C 
ATOM     98  C   UNL     1     143.874 166.081 187.911  0.00  0.00    -0.010 C 
ATOM     99  H   UNL     1     145.293 167.300 188.782  0.00  0.00    +0.059 HD
ATOM    100  H   UNL     1     143.888 166.771 187.061  0.00  0.00    +0.078 HD
BRANCH  98 101
ATOM    101  N   UNL     1     142.984 165.045 187.692  0.00  0.00    -0.317 N 
BRANCH 101 102
ATOM    102  C   UNL     1     143.257 163.877 186.859  0.00  0.00    +0.002 C 
ATOM    103  H   UNL     1     144.233 163.965 186.368  0.00  0.00    +0.043 HD
ATOM    104  H   UNL     1     142.515 163.775 186.058  0.00  0.00    +0.043 HD
ATOM    105  H   UNL     1     143.224 162.963 187.457  0.00  0.00    +0.043 HD
ENDBRANCH 101 102
BRANCH 101 106
ATOM    106  C   UNL     1     141.655 165.066 188.280  0.00  0.00    +0.110 C 
ATOM    107  H   UNL     1     140.919 164.551 187.655  0.00  0.00    +0.077 HD
ATOM    108  H   UNL     1     141.301 166.090 188.439  0.00  0.00    +0.077 HD
BRANCH 106 109
ATOM    109  O   UNL     1     141.752 164.403 189.519  0.00  0.00    -0.377 OA
ATOM    110  H   UNL     1     141.078 163.710 189.413  0.00  0.00    +0.211 HD
ENDBRANCH 106 109
ENDBRANCH 101 106
ENDBRANCH  98 101
ENDBRANCH  91  97
ENDBRANCH  89  91
BRANCH  89 111
ATOM    111  O   UNL     1     146.184 166.284 192.216  0.00  0.00    -0.460 OA
BRANCH 111 112
ATOM    112  C   UNL     1     147.123 167.188 192.598  0.00  0.00    +0.304 C 
ATOM    113  O   UNL     1     147.340 168.262 192.058  0.00  0.00    -0.251 OA
BRANCH 112 114
ATOM    114  C   UNL     1     147.833 166.707 193.828  0.00  0.00    +0.033 C 
ATOM    115  H   UNL     1     147.826 167.480 194.604  0.00  0.00    +0.034 HD
ATOM    116  H   UNL     1     148.867 166.454 193.578  0.00  0.00    +0.034 HD
ATOM    117  H   UNL     1     147.314 165.830 194.226  0.00  0.00    +0.034 HD
ENDBRANCH 112 114
ENDBRANCH 111 112
ENDBRANCH  89 111
ENDBRANCH  83  89
ENDBRANCH  81  83
ENDBRANCH  78  81
ENDBRANCH  75  78
ENDBRANCH  69  75
ENDBRANCH  67  69
BRANCH  67 118
ATOM    118  O   UNL     1     140.992 173.102 191.178  0.00  0.00    -0.379 OA
BRANCH 118 119
ATOM    119  C   UNL     1     141.689 174.342 191.118  0.00  0.00    +0.037 C 
ATOM    120  H   UNL     1     142.717 174.139 190.804  0.00  0.00    +0.052 HD
ATOM    121  H   UNL     1     141.710 174.821 192.100  0.00  0.00    +0.052 HD
ATOM    122  H   UNL     1     141.239 175.013 190.387  0.00  0.00    +0.052 HD
ENDBRANCH 118 119
ENDBRANCH  67 118
ENDBRANCH  64  67
ENDBRANCH  13  64
BRANCH   8 123
ATOM    123  O   UNL     1     147.132 173.385 192.823  0.00  0.00    -0.391 OA
ATOM    124  H   UNL     1     146.480 173.822 192.247  0.00  0.00    +0.210 HD
ENDBRANCH   8 123
BRANCH  15 125
ATOM    125  O   UNL     1     145.958 172.899 187.588  0.00  0.00    -0.379 OA
BRANCH 125 126
ATOM    126  C   UNL     1     146.206 173.924 186.632  0.00  0.00    +0.037 C 
ATOM    127  H   UNL     1     145.315 174.123 186.027  0.00  0.00    +0.052 HD
ATOM    128  H   UNL     1     147.046 173.662 185.986  0.00  0.00    +0.052 HD
ATOM    129  H   UNL     1     146.460 174.836 187.173  0.00  0.00    +0.052 HD
ENDBRANCH 125 126
ENDBRANCH  15 125
TORSDOF 27
ENDMDL
MODEL 4
REMARK VINA RESULT:      -5.7      2.127      6.897
REMARK  Name = Ulapualide A_conf3
REMARK  27 active torsions:
REMARK  status: ('A' for Active; 'I' for Inactive)
REMARK    1  A    between atoms: C_1  and  C_2
REMARK    2  A    between atoms: C_9  and  O_63
REMARK    3  A    between atoms: C_14  and  C_38
REMARK    4  A    between atoms: C_15  and  C_37
REMARK    5  A    between atoms: C_16  and  O_35
REMARK    6  A    between atoms: O_35  and  C_36
REMARK    7  A    between atoms: C_38  and  C_39
REMARK    8  A    between atoms: C_39  and  C_40
REMARK    9  A    between atoms: C_39  and  O_61
REMARK   10  A    between atoms: C_40  and  C_41
REMARK   11  A    between atoms: C_40  and  C_42
REMARK   12  A    between atoms: C_42  and  C_43
REMARK   13  A    between atoms: C_43  and  C_44
REMARK   14  A    between atoms: C_44  and  C_46
REMARK   15  A    between atoms: C_46  and  C_47
REMARK   16  A    between atoms: C_46  and  C_48
REMARK   17  A    between atoms: C_48  and  C_49
REMARK   18  A    between atoms: C_48  and  O_57
REMARK   19  A    between atoms: C_49  and  C_50
REMARK   20  A    between atoms: C_49  and  C_51
REMARK   21  A    between atoms: C_52  and  N_53
REMARK   22  A    between atoms: N_53  and  C_54
REMARK   23  A    between atoms: N_53  and  C_55
REMARK   24  A    between atoms: C_55  and  O_56
REMARK   25  A    between atoms: O_57  and  C_58
REMARK   26  A    between atoms: C_58  and  C_60
REMARK   27  A    between atoms: O_61  and  C_62
REMARK                            x       y       z     vdW  Elec       q    Type
REMARK                         _______ _______ _______ _____ _____    ______ ____
ROOT
ATOM      1  C   UNL     1     144.554 171.661 190.333  0.00  0.00    +0.008 C 
ATOM      2  C   UNL     1     144.611 172.241 188.914  0.00  0.00    +0.014 C 
ATOM      3  C   UNL     1     145.431 171.400 187.949  0.00  0.00    +0.134 C 
ATOM      4  O   UNL     1     146.382 171.893 187.340  0.00  0.00    -0.297 OA
ATOM      5  C   UNL     1     144.968 169.969 187.726  0.00  0.00    +0.006 C 
ATOM      6  C   UNL     1     145.636 169.292 186.530  0.00  0.00    -0.044 C 
ATOM      7  C   UNL     1     144.952 167.959 186.222  0.00  0.00    -0.026 C 
ATOM      8  C   UNL     1     145.543 167.222 185.018  0.00  0.00    +0.065 C 
ATOM      9  C   UNL     1     147.004 166.805 185.153  0.00  0.00    +0.071 C 
ATOM     10  C   UNL     1     147.227 165.876 186.318  0.00  0.00    +0.310 C 
ATOM     11  O   UNL     1     147.383 166.244 187.473  0.00  0.00    -0.251 OA
ATOM     12  O   UNL     1     147.204 164.585 185.890  0.00  0.00    -0.461 OA
ATOM     13  C   UNL     1     147.522 163.551 186.848  0.00  0.00    +0.110 C 
ATOM     14  C   UNL     1     148.916 162.954 186.475  0.00  0.00    +0.020 C 
ATOM     15  C   UNL     1     150.109 163.959 186.599  0.00  0.00    +0.068 C 
ATOM     16  C   UNL     1     150.337 164.512 188.038  0.00  0.00    -0.008 C 
ATOM     17  C   UNL     1     151.493 163.825 188.727  0.00  0.00    -0.077 C 
ATOM     18  C   UNL     1     152.270 164.282 189.725  0.00  0.00    -0.003 C 
ATOM     19  C   UNL     1     152.132 165.527 190.397  0.00  0.00    +0.220 A 
ATOM     20  N   UNL     1     151.106 166.371 190.390  0.00  0.00    -0.205 NA
ATOM     21  C   UNL     1     151.476 167.405 191.218  0.00  0.00    +0.164 A 
ATOM     22  C   UNL     1     152.728 167.163 191.716  0.00  0.00    +0.125 A 
ATOM     23  O   UNL     1     153.157 165.980 191.216  0.00  0.00    -0.443 OA
ATOM     24  C   UNL     1     150.654 168.683 191.583  0.00  0.00    +0.250 A 
ATOM     25  N   UNL     1     149.427 168.954 191.171  0.00  0.00    -0.203 NA
ATOM     26  C   UNL     1     149.151 170.189 191.718  0.00  0.00    +0.164 A 
ATOM     27  C   UNL     1     150.222 170.617 192.459  0.00  0.00    +0.125 A 
ATOM     28  O   UNL     1     151.186 169.665 192.396  0.00  0.00    -0.442 OA
ATOM     29  C   UNL     1     147.844 171.031 191.553  0.00  0.00    +0.249 A 
ATOM     30  N   UNL     1     146.767 170.647 190.888  0.00  0.00    -0.212 NA
ATOM     31  C   UNL     1     145.895 171.708 190.993  0.00  0.00    +0.083 A 
ATOM     32  C   UNL     1     146.484 172.706 191.732  0.00  0.00    +0.116 A 
ATOM     33  O   UNL     1     147.718 172.287 192.107  0.00  0.00    -0.442 OA
ATOM     34  H   UNL     1     144.247 170.608 190.286  0.00  0.00    +0.037 HD
ATOM     35  H   UNL     1     145.032 173.253 188.926  0.00  0.00    +0.035 HD
ATOM     36  H   UNL     1     143.604 172.321 188.486  0.00  0.00    +0.035 HD
ATOM     37  H   UNL     1     143.886 170.007 187.566  0.00  0.00    +0.034 HD
ATOM     38  H   UNL     1     145.171 169.388 188.632  0.00  0.00    +0.034 HD
ATOM     39  H   UNL     1     146.698 169.145 186.750  0.00  0.00    +0.027 HD
ATOM     40  H   UNL     1     145.579 169.944 185.649  0.00  0.00    +0.027 HD
ATOM     41  H   UNL     1     143.888 168.142 186.020  0.00  0.00    +0.029 HD
ATOM     42  H   UNL     1     144.963 167.311 187.109  0.00  0.00    +0.029 HD
ATOM     43  H   UNL     1     145.449 167.870 184.138  0.00  0.00    +0.060 HD
ATOM     44  H   UNL     1     147.333 166.293 184.241  0.00  0.00    +0.040 HD
ATOM     45  H   UNL     1     147.665 167.668 185.272  0.00  0.00    +0.040 HD
ATOM     46  H   UNL     1     147.557 163.937 187.868  0.00  0.00    +0.074 HD
ATOM     47  H   UNL     1     148.865 162.688 185.408  0.00  0.00    +0.036 HD
ATOM     48  H   UNL     1     151.003 163.409 186.273  0.00  0.00    +0.060 HD
ATOM     49  H   UNL     1     150.510 165.591 187.998  0.00  0.00    +0.033 HD
ATOM     50  H   UNL     1     149.451 164.362 188.659  0.00  0.00    +0.033 HD
ATOM     51  H   UNL     1     151.735 162.827 188.367  0.00  0.00    +0.057 HD
ATOM     52  H   UNL     1     153.087 163.654 190.070  0.00  0.00    +0.067 HD
ATOM     53  H   UNL     1     153.399 167.683 192.383  0.00  0.00    +0.105 HD
ATOM     54  H   UNL     1     150.440 171.495 193.046  0.00  0.00    +0.105 HD
ATOM     55  H   UNL     1     146.194 173.698 192.051  0.00  0.00    +0.105 HD
ENDROOT
BRANCH   1  56
ATOM     56  C   UNL     1     143.480 172.384 191.151  0.00  0.00    -0.056 C 
ATOM     57  H   UNL     1     143.652 172.247 192.225  0.00  0.00    +0.024 HD
ATOM     58  H   UNL     1     142.476 172.009 190.923  0.00  0.00    +0.024 HD
ATOM     59  H   UNL     1     143.489 173.460 190.949  0.00  0.00    +0.024 HD
ENDBRANCH   1  56
BRANCH  14  60
ATOM     60  C   UNL     1     149.238 161.671 187.256  0.00  0.00    -0.057 C 
ATOM     61  H   UNL     1     150.202 161.250 186.956  0.00  0.00    +0.023 HD
ATOM     62  H   UNL     1     149.264 161.857 188.333  0.00  0.00    +0.023 HD
ATOM     63  H   UNL     1     148.465 160.912 187.099  0.00  0.00    +0.023 HD
ENDBRANCH  14  60
BRANCH  13  64
ATOM     64  C   UNL     1     146.372 162.529 186.748  0.00  0.00    +0.011 C 
ATOM     65  H   UNL     1     146.784 161.522 186.635  0.00  0.00    +0.033 HD
ATOM     66  H   UNL     1     145.774 162.765 185.858  0.00  0.00    +0.033 HD
BRANCH  64  67
ATOM     67  C   UNL     1     145.451 162.517 187.990  0.00  0.00    +0.064 C 
ATOM     68  H   UNL     1     146.023 162.813 188.881  0.00  0.00    +0.060 HD
BRANCH  67  69
ATOM     69  C   UNL     1     144.266 163.517 187.839  0.00  0.00    -0.017 C 
ATOM     70  H   UNL     1     144.725 164.513 187.748  0.00  0.00    +0.032 HD
BRANCH  69  71
ATOM     71  C   UNL     1     143.440 163.303 186.563  0.00  0.00    -0.060 C 
ATOM     72  H   UNL     1     143.212 164.263 186.086  0.00  0.00    +0.023 HD
ATOM     73  H   UNL     1     142.496 162.789 186.773  0.00  0.00    +0.023 HD
ATOM     74  H   UNL     1     143.991 162.708 185.828  0.00  0.00    +0.023 HD
ENDBRANCH  69  71
BRANCH  69  75
ATOM     75  C   UNL     1     143.361 163.573 189.098  0.00  0.00    -0.041 C 
ATOM     76  H   UNL     1     142.485 162.931 188.950  0.00  0.00    +0.027 HD
ATOM     77  H   UNL     1     143.917 163.116 189.927  0.00  0.00    +0.027 HD
BRANCH  75  78
ATOM     78  C   UNL     1     142.916 164.971 189.542  0.00  0.00    +0.007 C 
ATOM     79  H   UNL     1     142.202 164.913 190.363  0.00  0.00    +0.034 HD
ATOM     80  H   UNL     1     142.413 165.505 188.728  0.00  0.00    +0.034 HD
BRANCH  78  81
ATOM     81  C   UNL     1     144.107 165.830 189.942  0.00  0.00    +0.140 C 
ATOM     82  O   UNL     1     144.222 166.965 189.479  0.00  0.00    -0.297 OA
BRANCH  81  83
ATOM     83  C   UNL     1     145.059 165.289 191.018  0.00  0.00    +0.052 C 
ATOM     84  H   UNL     1     144.707 164.266 191.205  0.00  0.00    +0.041 HD
BRANCH  83  85
ATOM     85  C   UNL     1     146.502 165.164 190.531  0.00  0.00    -0.052 C 
ATOM     86  H   UNL     1     146.716 165.864 189.719  0.00  0.00    +0.024 HD
ATOM     87  H   UNL     1     146.696 164.157 190.149  0.00  0.00    +0.024 HD
ATOM     88  H   UNL     1     147.220 165.329 191.339  0.00  0.00    +0.024 HD
ENDBRANCH  83  85
BRANCH  83  89
ATOM     89  C   UNL     1     144.949 166.067 192.358  0.00  0.00    +0.118 C 
ATOM     90  H   UNL     1     144.945 167.150 192.171  0.00  0.00    +0.075 HD
BRANCH  89  91
ATOM     91  C   UNL     1     146.043 165.757 193.431  0.00  0.00    +0.014 C 
ATOM     92  H   UNL     1     146.716 165.013 193.002  0.00  0.00    +0.038 HD
BRANCH  91  93
ATOM     93  C   UNL     1     145.412 165.087 194.662  0.00  0.00    -0.056 C 
ATOM     94  H   UNL     1     146.131 165.003 195.485  0.00  0.00    +0.024 HD
ATOM     95  H   UNL     1     145.059 164.076 194.420  0.00  0.00    +0.024 HD
ATOM     96  H   UNL     1     144.550 165.655 195.025  0.00  0.00    +0.024 HD
ENDBRANCH  91  93
BRANCH  91  97
ATOM     97  C   UNL     1     146.805 166.973 193.892  0.00  0.00    -0.064 C 
ATOM     98  C   UNL     1     148.003 167.067 194.481  0.00  0.00    -0.010 C 
ATOM     99  H   UNL     1     146.312 167.919 193.663  0.00  0.00    +0.059 HD
ATOM    100  H   UNL     1     148.372 168.086 194.636  0.00  0.00    +0.078 HD
BRANCH  98 101
ATOM    101  N   UNL     1     148.918 166.136 194.940  0.00  0.00    -0.317 N 
BRANCH 101 102
ATOM    102  C   UNL     1     149.907 165.461 194.104  0.00  0.00    +0.002 C 
ATOM    103  H   UNL     1     150.779 165.157 194.695  0.00  0.00    +0.043 HD
ATOM    104  H   UNL     1     150.283 166.123 193.315  0.00  0.00    +0.043 HD
ATOM    105  H   UNL     1     149.466 164.587 193.618  0.00  0.00    +0.043 HD
ENDBRANCH 101 102
BRANCH 101 106
ATOM    106  C   UNL     1     148.937 165.733 196.337  0.00  0.00    +0.110 C 
ATOM    107  H   UNL     1     148.832 164.650 196.454  0.00  0.00    +0.077 HD
ATOM    108  H   UNL     1     148.132 166.211 196.905  0.00  0.00    +0.077 HD
BRANCH 106 109
ATOM    109  O   UNL     1     150.184 166.134 196.855  0.00  0.00    -0.377 OA
ATOM    110  H   UNL     1     150.725 165.348 196.669  0.00  0.00    +0.211 HD
ENDBRANCH 106 109
ENDBRANCH 101 106
ENDBRANCH  98 101
ENDBRANCH  91  97
ENDBRANCH  89  91
BRANCH  89 111
ATOM    111  O   UNL     1     143.679 165.693 192.973  0.00  0.00    -0.460 OA
BRANCH 111 112
ATOM    112  C   UNL     1     142.876 166.702 193.398  0.00  0.00    +0.304 C 
ATOM    113  O   UNL     1     142.135 166.663 194.369  0.00  0.00    -0.251 OA
BRANCH 112 114
ATOM    114  C   UNL     1     143.066 167.914 192.534  0.00  0.00    +0.033 C 
ATOM    115  H   UNL     1     142.515 167.806 191.593  0.00  0.00    +0.034 HD
ATOM    116  H   UNL     1     144.130 168.045 192.318  0.00  0.00    +0.034 HD
ATOM    117  H   UNL     1     142.673 168.793 193.052  0.00  0.00    +0.034 HD
ENDBRANCH 112 114
ENDBRANCH 111 112
ENDBRANCH  89 111
ENDBRANCH  83  89
ENDBRANCH  81  83
ENDBRANCH  78  81
ENDBRANCH  75  78
ENDBRANCH  69  75
ENDBRANCH  67  69
BRANCH  67 118
ATOM    118  O   UNL     1     144.930 161.189 188.140  0.00  0.00    -0.379 OA
BRANCH 118 119
ATOM    119  C   UNL     1     145.770 160.344 188.920  0.00  0.00    +0.037 C 
ATOM    120  H   UNL     1     145.472 159.307 188.739  0.00  0.00    +0.052 HD
ATOM    121  H   UNL     1     145.655 160.561 189.985  0.00  0.00    +0.052 HD
ATOM    122  H   UNL     1     146.815 160.449 188.630  0.00  0.00    +0.052 HD
ENDBRANCH 118 119
ENDBRANCH  67 118
ENDBRANCH  64  67
ENDBRANCH  13  64
BRANCH   8 123
ATOM    123  O   UNL     1     144.718 166.080 184.763  0.00  0.00    -0.391 OA
ATOM    124  H   UNL     1     144.708 165.926 183.803  0.00  0.00    +0.210 HD
ENDBRANCH   8 123
BRANCH  15 125
ATOM    125  O   UNL     1     149.926 165.012 185.637  0.00  0.00    -0.379 OA
BRANCH 125 126
ATOM    126  C   UNL     1     150.363 164.671 184.326  0.00  0.00    +0.037 C 
ATOM    127  H   UNL     1     150.482 165.565 183.705  0.00  0.00    +0.052 HD
ATOM    128  H   UNL     1     149.671 163.974 183.851  0.00  0.00    +0.052 HD
ATOM    129  H   UNL     1     151.337 164.185 184.410  0.00  0.00    +0.052 HD
ENDBRANCH 125 126
ENDBRANCH  15 125
TORSDOF 27
ENDMDL
MODEL 5
REMARK VINA RESULT:      -5.5      1.157      1.896
REMARK  Name = Ulapualide A_conf3
REMARK  27 active torsions:
REMARK  status: ('A' for Active; 'I' for Inactive)
REMARK    1  A    between atoms: C_1  and  C_2
REMARK    2  A    between atoms: C_9  and  O_63
REMARK    3  A    between atoms: C_14  and  C_38
REMARK    4  A    between atoms: C_15  and  C_37
REMARK    5  A    between atoms: C_16  and  O_35
REMARK    6  A    between atoms: O_35  and  C_36
REMARK    7  A    between atoms: C_38  and  C_39
REMARK    8  A    between atoms: C_39  and  C_40
REMARK    9  A    between atoms: C_39  and  O_61
REMARK   10  A    between atoms: C_40  and  C_41
REMARK   11  A    between atoms: C_40  and  C_42
REMARK   12  A    between atoms: C_42  and  C_43
REMARK   13  A    between atoms: C_43  and  C_44
REMARK   14  A    between atoms: C_44  and  C_46
REMARK   15  A    between atoms: C_46  and  C_47
REMARK   16  A    between atoms: C_46  and  C_48
REMARK   17  A    between atoms: C_48  and  C_49
REMARK   18  A    between atoms: C_48  and  O_57
REMARK   19  A    between atoms: C_49  and  C_50
REMARK   20  A    between atoms: C_49  and  C_51
REMARK   21  A    between atoms: C_52  and  N_53
REMARK   22  A    between atoms: N_53  and  C_54
REMARK   23  A    between atoms: N_53  and  C_55
REMARK   24  A    between atoms: C_55  and  O_56
REMARK   25  A    between atoms: O_57  and  C_58
REMARK   26  A    between atoms: C_58  and  C_60
REMARK   27  A    between atoms: O_61  and  C_62
REMARK                            x       y       z     vdW  Elec       q    Type
REMARK                         _______ _______ _______ _____ _____    ______ ____
ROOT
ATOM      1  C   UNL     1     153.856 166.681 187.024  0.00  0.00    +0.008 C 
ATOM      2  C   UNL     1     153.723 165.347 186.281  0.00  0.00    +0.014 C 
ATOM      3  C   UNL     1     152.394 164.648 186.526  0.00  0.00    +0.134 C 
ATOM      4  O   UNL     1     152.362 163.501 186.973  0.00  0.00    -0.297 OA
ATOM      5  C   UNL     1     151.140 165.405 186.120  0.00  0.00    +0.006 C 
ATOM      6  C   UNL     1     149.883 164.535 186.102  0.00  0.00    -0.044 C 
ATOM      7  C   UNL     1     148.720 165.292 185.457  0.00  0.00    -0.026 C 
ATOM      8  C   UNL     1     147.424 164.484 185.375  0.00  0.00    +0.065 C 
ATOM      9  C   UNL     1     146.824 164.062 186.712  0.00  0.00    +0.071 C 
ATOM     10  C   UNL     1     146.484 165.243 187.583  0.00  0.00    +0.310 C 
ATOM     11  O   UNL     1     147.286 165.826 188.299  0.00  0.00    -0.251 OA
ATOM     12  O   UNL     1     145.172 165.567 187.431  0.00  0.00    -0.461 OA
ATOM     13  C   UNL     1     144.629 166.602 188.281  0.00  0.00    +0.110 C 
ATOM     14  C   UNL     1     143.661 165.933 189.306  0.00  0.00    +0.020 C 
ATOM     15  C   UNL     1     144.353 164.950 190.309  0.00  0.00    +0.068 C 
ATOM     16  C   UNL     1     145.427 165.613 191.222  0.00  0.00    -0.008 C 
ATOM     17  C   UNL     1     144.899 165.874 192.613  0.00  0.00    -0.077 C 
ATOM     18  C   UNL     1     145.584 165.993 193.765  0.00  0.00    -0.003 C 
ATOM     19  C   UNL     1     146.997 165.948 193.912  0.00  0.00    +0.220 A 
ATOM     20  N   UNL     1     147.938 166.043 192.980  0.00  0.00    -0.205 NA
ATOM     21  C   UNL     1     149.133 165.961 193.656  0.00  0.00    +0.164 A 
ATOM     22  C   UNL     1     148.890 165.821 194.995  0.00  0.00    +0.125 A 
ATOM     23  O   UNL     1     147.548 165.817 195.180  0.00  0.00    -0.443 OA
ATOM     24  C   UNL     1     150.577 166.014 193.060  0.00  0.00    +0.250 A 
ATOM     25  N   UNL     1     150.880 166.190 191.785  0.00  0.00    -0.203 NA
ATOM     26  C   UNL     1     152.256 166.127 191.751  0.00  0.00    +0.164 A 
ATOM     27  C   UNL     1     152.742 165.930 193.017  0.00  0.00    +0.125 A 
ATOM     28  O   UNL     1     151.687 165.868 193.869  0.00  0.00    -0.442 OA
ATOM     29  C   UNL     1     153.182 166.247 190.497  0.00  0.00    +0.249 A 
ATOM     30  N   UNL     1     152.770 166.481 189.262  0.00  0.00    -0.212 NA
ATOM     31  C   UNL     1     153.919 166.476 188.504  0.00  0.00    +0.083 A 
ATOM     32  C   UNL     1     155.000 166.240 189.320  0.00  0.00    +0.116 A 
ATOM     33  O   UNL     1     154.551 166.105 190.592  0.00  0.00    -0.442 OA
ATOM     34  H   UNL     1     152.979 167.307 186.815  0.00  0.00    +0.037 HD
ATOM     35  H   UNL     1     154.527 164.660 186.570  0.00  0.00    +0.035 HD
ATOM     36  H   UNL     1     153.806 165.495 185.197  0.00  0.00    +0.035 HD
ATOM     37  H   UNL     1     151.320 165.805 185.117  0.00  0.00    +0.034 HD
ATOM     38  H   UNL     1     150.993 166.241 186.812  0.00  0.00    +0.034 HD
ATOM     39  H   UNL     1     149.637 164.242 187.128  0.00  0.00    +0.027 HD
ATOM     40  H   UNL     1     150.073 163.611 185.542  0.00  0.00    +0.027 HD
ATOM     41  H   UNL     1     149.006 165.582 184.437  0.00  0.00    +0.029 HD
ATOM     42  H   UNL     1     148.545 166.241 185.982  0.00  0.00    +0.029 HD
ATOM     43  H   UNL     1     147.619 163.580 184.784  0.00  0.00    +0.060 HD
ATOM     44  H   UNL     1     145.906 163.485 186.546  0.00  0.00    +0.040 HD
ATOM     45  H   UNL     1     147.497 163.406 187.273  0.00  0.00    +0.040 HD
ATOM     46  H   UNL     1     145.412 167.138 188.820  0.00  0.00    +0.074 HD
ATOM     47  H   UNL     1     142.966 165.313 188.719  0.00  0.00    +0.036 HD
ATOM     48  H   UNL     1     143.547 164.539 190.933  0.00  0.00    +0.060 HD
ATOM     49  H   UNL     1     146.318 164.979 191.269  0.00  0.00    +0.033 HD
ATOM     50  H   UNL     1     145.750 166.572 190.811  0.00  0.00    +0.033 HD
ATOM     51  H   UNL     1     143.819 165.974 192.699  0.00  0.00    +0.057 HD
ATOM     52  H   UNL     1     145.023 166.143 194.684  0.00  0.00    +0.067 HD
ATOM     53  H   UNL     1     149.504 165.723 195.878  0.00  0.00    +0.105 HD
ATOM     54  H   UNL     1     153.725 165.825 193.449  0.00  0.00    +0.105 HD
ATOM     55  H   UNL     1     156.066 166.136 189.172  0.00  0.00    +0.105 HD
ENDROOT
BRANCH   1  56
ATOM     56  C   UNL     1     155.068 167.456 186.495  0.00  0.00    -0.056 C 
ATOM     57  H   UNL     1     154.811 168.506 186.318  0.00  0.00    +0.024 HD
ATOM     58  H   UNL     1     155.435 167.038 185.550  0.00  0.00    +0.024 HD
ATOM     59  H   UNL     1     155.894 167.433 187.213  0.00  0.00    +0.024 HD
ENDBRANCH   1  56
BRANCH  14  60
ATOM     60  C   UNL     1     142.822 166.957 190.084  0.00  0.00    -0.057 C 
ATOM     61  H   UNL     1     141.828 167.079 189.645  0.00  0.00    +0.023 HD
ATOM     62  H   UNL     1     142.703 166.663 191.131  0.00  0.00    +0.023 HD
ATOM     63  H   UNL     1     143.314 167.936 190.100  0.00  0.00    +0.023 HD
ENDBRANCH  14  60
BRANCH  13  64
ATOM     64  C   UNL     1     143.925 167.589 187.329  0.00  0.00    +0.011 C 
ATOM     65  H   UNL     1     143.205 168.192 187.891  0.00  0.00    +0.033 HD
ATOM     66  H   UNL     1     143.382 167.012 186.569  0.00  0.00    +0.033 HD
BRANCH  64  67
ATOM     67  C   UNL     1     144.898 168.565 186.626  0.00  0.00    +0.064 C 
ATOM     68  H   UNL     1     145.288 168.105 185.707  0.00  0.00    +0.060 HD
BRANCH  67  69
ATOM     69  C   UNL     1     144.192 169.894 186.224  0.00  0.00    -0.017 C 
ATOM     70  H   UNL     1     144.863 170.382 185.502  0.00  0.00    +0.032 HD
BRANCH  69  71
ATOM     71  C   UNL     1     142.854 169.686 185.501  0.00  0.00    -0.060 C 
ATOM     72  H   UNL     1     142.596 170.570 184.908  0.00  0.00    +0.023 HD
ATOM     73  H   UNL     1     142.038 169.492 186.206  0.00  0.00    +0.023 HD
ATOM     74  H   UNL     1     142.905 168.843 184.806  0.00  0.00    +0.023 HD
ENDBRANCH  69  71
BRANCH  69  75
ATOM     75  C   UNL     1     144.047 170.881 187.412  0.00  0.00    -0.041 C 
ATOM     76  H   UNL     1     144.876 170.736 188.115  0.00  0.00    +0.027 HD
ATOM     77  H   UNL     1     144.179 171.897 187.016  0.00  0.00    +0.027 HD
BRANCH  75  78
ATOM     78  C   UNL     1     142.712 170.837 188.163  0.00  0.00    +0.007 C 
ATOM     79  H   UNL     1     142.635 169.939 188.774  0.00  0.00    +0.034 HD
ATOM     80  H   UNL     1     141.866 170.814 187.467  0.00  0.00    +0.034 HD
BRANCH  78  81
ATOM     81  C   UNL     1     142.519 172.077 189.023  0.00  0.00    +0.140 C 
ATOM     82  O   UNL     1     142.000 173.082 188.536  0.00  0.00    -0.297 OA
BRANCH  81  83
ATOM     83  C   UNL     1     142.865 171.981 190.515  0.00  0.00    +0.052 C 
ATOM     84  H   UNL     1     141.954 172.318 191.029  0.00  0.00    +0.041 HD
BRANCH  83  85
ATOM     85  C   UNL     1     143.113 170.547 190.980  0.00  0.00    -0.052 C 
ATOM     86  H   UNL     1     142.245 169.908 190.797  0.00  0.00    +0.024 HD
ATOM     87  H   UNL     1     143.316 170.518 192.055  0.00  0.00    +0.024 HD
ATOM     88  H   UNL     1     143.987 170.106 190.492  0.00  0.00    +0.024 HD
ENDBRANCH  83  85
BRANCH  83  89
ATOM     89  C   UNL     1     144.010 172.946 190.927  0.00  0.00    +0.118 C 
ATOM     90  H   UNL     1     144.188 173.687 190.135  0.00  0.00    +0.075 HD
BRANCH  89  91
ATOM     91  C   UNL     1     145.377 172.283 191.296  0.00  0.00    +0.014 C 
ATOM     92  H   UNL     1     145.154 171.362 191.837  0.00  0.00    +0.038 HD
BRANCH  91  93
ATOM     93  C   UNL     1     146.153 173.169 192.283  0.00  0.00    -0.056 C 
ATOM     94  H   UNL     1     145.676 174.150 192.401  0.00  0.00    +0.024 HD
ATOM     95  H   UNL     1     147.181 173.336 191.937  0.00  0.00    +0.024 HD
ATOM     96  H   UNL     1     146.213 172.704 193.272  0.00  0.00    +0.024 HD
ENDBRANCH  91  93
BRANCH  91  97
ATOM     97  C   UNL     1     146.262 172.011 190.106  0.00  0.00    -0.064 C 
ATOM     98  C   UNL     1     147.233 171.104 189.944  0.00  0.00    -0.010 C 
ATOM     99  H   UNL     1     146.036 172.626 189.234  0.00  0.00    +0.059 HD
ATOM    100  H   UNL     1     147.668 171.056 188.940  0.00  0.00    +0.078 HD
BRANCH  98 101
ATOM    101  N   UNL     1     147.819 170.171 190.782  0.00  0.00    -0.317 N 
BRANCH 101 102
ATOM    102  C   UNL     1     148.759 170.491 191.852  0.00  0.00    +0.002 C 
ATOM    103  H   UNL     1     149.400 171.336 191.572  0.00  0.00    +0.043 HD
ATOM    104  H   UNL     1     149.430 169.650 192.061  0.00  0.00    +0.043 HD
ATOM    105  H   UNL     1     148.224 170.723 192.776  0.00  0.00    +0.043 HD
ENDBRANCH 101 102
BRANCH 101 106
ATOM    106  C   UNL     1     147.545 168.752 190.627  0.00  0.00    +0.110 C 
ATOM    107  H   UNL     1     147.210 168.504 189.615  0.00  0.00    +0.077 HD
ATOM    108  H   UNL     1     146.774 168.412 191.327  0.00  0.00    +0.077 HD
BRANCH 106 109
ATOM    109  O   UNL     1     148.753 168.078 190.892  0.00  0.00    -0.377 OA
ATOM    110  H   UNL     1     148.963 168.412 191.780  0.00  0.00    +0.211 HD
ENDBRANCH 106 109
ENDBRANCH 101 106
ENDBRANCH  98 101
ENDBRANCH  91  97
ENDBRANCH  89  91
BRANCH  89 111
ATOM    111  O   UNL     1     143.575 173.646 192.133  0.00  0.00    -0.460 OA
BRANCH 111 112
ATOM    112  C   UNL     1     142.551 174.528 192.002  0.00  0.00    +0.304 C 
ATOM    113  O   UNL     1     142.409 175.324 191.085  0.00  0.00    -0.251 OA
BRANCH 112 114
ATOM    114  C   UNL     1     141.570 174.353 193.123  0.00  0.00    +0.033 C 
ATOM    115  H   UNL     1     141.509 173.300 193.419  0.00  0.00    +0.034 HD
ATOM    116  H   UNL     1     140.583 174.698 192.803  0.00  0.00    +0.034 HD
ATOM    117  H   UNL     1     141.909 174.924 193.992  0.00  0.00    +0.034 HD
ENDBRANCH 112 114
ENDBRANCH 111 112
ENDBRANCH  89 111
ENDBRANCH  83  89
ENDBRANCH  81  83
ENDBRANCH  78  81
ENDBRANCH  75  78
ENDBRANCH  69  75
ENDBRANCH  67  69
BRANCH  67 118
ATOM    118  O   UNL     1     145.966 168.856 187.539  0.00  0.00    -0.379 OA
BRANCH 118 119
ATOM    119  C   UNL     1     147.229 168.993 186.897  0.00  0.00    +0.037 C 
ATOM    120  H   UNL     1     147.999 169.059 187.671  0.00  0.00    +0.052 HD
ATOM    121  H   UNL     1     147.258 169.905 186.293  0.00  0.00    +0.052 HD
ATOM    122  H   UNL     1     147.452 168.128 186.273  0.00  0.00    +0.052 HD
ENDBRANCH 118 119
ENDBRANCH  67 118
ENDBRANCH  64  67
ENDBRANCH  13  64
BRANCH   8 123
ATOM    123  O   UNL     1     146.480 165.257 184.625  0.00  0.00    -0.391 OA
ATOM    124  H   UNL     1     146.514 166.172 184.953  0.00  0.00    +0.210 HD
ENDBRANCH   8 123
BRANCH  15 125
ATOM    125  O   UNL     1     144.883 163.836 189.570  0.00  0.00    -0.379 OA
BRANCH 125 126
ATOM    126  C   UNL     1     143.893 162.895 189.165  0.00  0.00    +0.037 C 
ATOM    127  H   UNL     1     143.466 163.166 188.194  0.00  0.00    +0.052 HD
ATOM    128  H   UNL     1     143.103 162.813 189.913  0.00  0.00    +0.052 HD
ATOM    129  H   UNL     1     144.374 161.921 189.065  0.00  0.00    +0.052 HD
ENDBRANCH 125 126
ENDBRANCH  15 125
TORSDOF 27
ENDMDL
MODEL 6
REMARK VINA RESULT:      -5.5      6.027     12.466
REMARK  Name = Ulapualide A_conf3
REMARK  27 active torsions:
REMARK  status: ('A' for Active; 'I' for Inactive)
REMARK    1  A    between atoms: C_1  and  C_2
REMARK    2  A    between atoms: C_9  and  O_63
REMARK    3  A    between atoms: C_14  and  C_38
REMARK    4  A    between atoms: C_15  and  C_37
REMARK    5  A    between atoms: C_16  and  O_35
REMARK    6  A    between atoms: O_35  and  C_36
REMARK    7  A    between atoms: C_38  and  C_39
REMARK    8  A    between atoms: C_39  and  C_40
REMARK    9  A    between atoms: C_39  and  O_61
REMARK   10  A    between atoms: C_40  and  C_41
REMARK   11  A    between atoms: C_40  and  C_42
REMARK   12  A    between atoms: C_42  and  C_43
REMARK   13  A    between atoms: C_43  and  C_44
REMARK   14  A    between atoms: C_44  and  C_46
REMARK   15  A    between atoms: C_46  and  C_47
REMARK   16  A    between atoms: C_46  and  C_48
REMARK   17  A    between atoms: C_48  and  C_49
REMARK   18  A    between atoms: C_48  and  O_57
REMARK   19  A    between atoms: C_49  and  C_50
REMARK   20  A    between atoms: C_49  and  C_51
REMARK   21  A    between atoms: C_52  and  N_53
REMARK   22  A    between atoms: N_53  and  C_54
REMARK   23  A    between atoms: N_53  and  C_55
REMARK   24  A    between atoms: C_55  and  O_56
REMARK   25  A    between atoms: O_57  and  C_58
REMARK   26  A    between atoms: C_58  and  C_60
REMARK   27  A    between atoms: O_61  and  C_62
REMARK                            x       y       z     vdW  Elec       q    Type
REMARK                         _______ _______ _______ _____ _____    ______ ____
ROOT
ATOM      1  C   UNL     1     133.414 170.093 194.572  0.00  0.00    +0.008 C 
ATOM      2  C   UNL     1     132.876 170.338 193.157  0.00  0.00    +0.014 C 
ATOM      3  C   UNL     1     133.882 171.006 192.233  0.00  0.00    +0.134 C 
ATOM      4  O   UNL     1     133.608 172.066 191.670  0.00  0.00    -0.297 OA
ATOM      5  C   UNL     1     135.186 170.262 191.991  0.00  0.00    +0.006 C 
ATOM      6  C   UNL     1     136.003 170.826 190.829  0.00  0.00    -0.044 C 
ATOM      7  C   UNL     1     137.165 169.892 190.491  0.00  0.00    -0.026 C 
ATOM      8  C   UNL     1     138.024 170.369 189.318  0.00  0.00    +0.065 C 
ATOM      9  C   UNL     1     138.738 171.701 189.524  0.00  0.00    +0.071 C 
ATOM     10  C   UNL     1     139.679 171.668 190.699  0.00  0.00    +0.310 C 
ATOM     11  O   UNL     1     139.339 171.844 191.861  0.00  0.00    -0.251 OA
ATOM     12  O   UNL     1     140.942 171.392 190.273  0.00  0.00    -0.461 OA
ATOM     13  C   UNL     1     142.008 171.440 191.247  0.00  0.00    +0.110 C 
ATOM     14  C   UNL     1     142.890 172.692 190.943  0.00  0.00    +0.020 C 
ATOM     15  C   UNL     1     142.157 174.063 191.123  0.00  0.00    +0.068 C 
ATOM     16  C   UNL     1     141.648 174.336 192.570  0.00  0.00    -0.008 C 
ATOM     17  C   UNL     1     142.556 175.286 193.315  0.00  0.00    -0.077 C 
ATOM     18  C   UNL     1     142.262 176.095 194.349  0.00  0.00    -0.003 C 
ATOM     19  C   UNL     1     141.007 176.192 195.011  0.00  0.00    +0.220 A 
ATOM     20  N   UNL     1     139.967 175.368 194.954  0.00  0.00    -0.205 NA
ATOM     21  C   UNL     1     139.024 175.910 195.797  0.00  0.00    +0.164 A 
ATOM     22  C   UNL     1     139.518 177.058 196.355  0.00  0.00    +0.125 A 
ATOM     23  O   UNL     1     140.772 177.250 195.878  0.00  0.00    -0.443 OA
ATOM     24  C   UNL     1     137.597 175.360 196.119  0.00  0.00    +0.250 A 
ATOM     25  N   UNL     1     137.078 174.239 195.648  0.00  0.00    -0.203 NA
ATOM     26  C   UNL     1     135.806 174.206 196.179  0.00  0.00    +0.164 A 
ATOM     27  C   UNL     1     135.605 175.306 196.970  0.00  0.00    +0.125 A 
ATOM     28  O   UNL     1     136.740 176.050 196.956  0.00  0.00    -0.442 OA
ATOM     29  C   UNL     1     134.710 173.115 195.950  0.00  0.00    +0.249 A 
ATOM     30  N   UNL     1     134.865 172.013 195.235  0.00  0.00    -0.212 NA
ATOM     31  C   UNL     1     133.643 171.381 195.296  0.00  0.00    +0.083 A 
ATOM     32  C   UNL     1     132.783 172.133 196.061  0.00  0.00    +0.116 A 
ATOM     33  O   UNL     1     133.449 173.231 196.496  0.00  0.00    -0.442 OA
ATOM     34  H   UNL     1     134.378 169.573 194.512  0.00  0.00    +0.037 HD
ATOM     35  H   UNL     1     131.975 170.962 193.187  0.00  0.00    +0.035 HD
ATOM     36  H   UNL     1     132.590 169.392 192.680  0.00  0.00    +0.035 HD
ATOM     37  H   UNL     1     134.922 169.220 191.779  0.00  0.00    +0.034 HD
ATOM     38  H   UNL     1     135.785 170.295 192.906  0.00  0.00    +0.034 HD
ATOM     39  H   UNL     1     136.368 171.822 191.101  0.00  0.00    +0.027 HD
ATOM     40  H   UNL     1     135.363 170.950 189.946  0.00  0.00    +0.027 HD
ATOM     41  H   UNL     1     136.763 168.901 190.237  0.00  0.00    +0.029 HD
ATOM     42  H   UNL     1     137.790 169.724 191.378  0.00  0.00    +0.029 HD
ATOM     43  H   UNL     1     137.380 170.455 188.434  0.00  0.00    +0.060 HD
ATOM     44  H   UNL     1     139.318 171.957 188.629  0.00  0.00    +0.040 HD
ATOM     45  H   UNL     1     138.032 172.524 189.673  0.00  0.00    +0.040 HD
ATOM     46  H   UNL     1     141.626 171.507 192.267  0.00  0.00    +0.074 HD
ATOM     47  H   UNL     1     143.151 172.635 189.875  0.00  0.00    +0.036 HD
ATOM     48  H   UNL     1     142.888 174.835 190.841  0.00  0.00    +0.060 HD
ATOM     49  H   UNL     1     140.630 174.734 192.537  0.00  0.00    +0.033 HD
ATOM     50  H   UNL     1     141.601 173.409 193.148  0.00  0.00    +0.033 HD
ATOM     51  H   UNL     1     143.587 175.328 192.969  0.00  0.00    +0.057 HD
ATOM     52  H   UNL     1     143.044 176.744 194.734  0.00  0.00    +0.067 HD
ATOM     53  H   UNL     1     139.145 177.792 197.053  0.00  0.00    +0.105 HD
ATOM     54  H   UNL     1     134.786 175.677 197.566  0.00  0.00    +0.105 HD
ATOM     55  H   UNL     1     131.749 172.044 196.364  0.00  0.00    +0.105 HD
ENDROOT
BRANCH   1  56
ATOM     56  C   UNL     1     132.471 169.159 195.336  0.00  0.00    -0.056 C 
ATOM     57  H   UNL     1     132.205 168.289 194.724  0.00  0.00    +0.024 HD
ATOM     58  H   UNL     1     131.540 169.665 195.619  0.00  0.00    +0.024 HD
ATOM     59  H   UNL     1     132.942 168.789 196.253  0.00  0.00    +0.024 HD
ENDBRANCH   1  56
BRANCH  14  60
ATOM     60  C   UNL     1     144.202 172.699 191.740  0.00  0.00    -0.057 C 
ATOM     61  H   UNL     1     144.930 173.392 191.310  0.00  0.00    +0.023 HD
ATOM     62  H   UNL     1     144.033 172.980 192.784  0.00  0.00    +0.023 HD
ATOM     63  H   UNL     1     144.651 171.700 191.766  0.00  0.00    +0.023 HD
ENDBRANCH  14  60
BRANCH  13  64
ATOM     64  C   UNL     1     142.765 170.106 191.093  0.00  0.00    +0.011 C 
ATOM     65  H   UNL     1     142.540 169.456 191.944  0.00  0.00    +0.033 HD
ATOM     66  H   UNL     1     143.843 170.316 191.088  0.00  0.00    +0.033 HD
BRANCH  64  67
ATOM     67  C   UNL     1     142.392 169.333 189.807  0.00  0.00    +0.064 C 
ATOM     68  H   UNL     1     141.752 169.957 189.168  0.00  0.00    +0.060 HD
BRANCH  67  69
ATOM     69  C   UNL     1     143.654 168.950 188.978  0.00  0.00    -0.017 C 
ATOM     70  H   UNL     1     143.786 167.867 189.117  0.00  0.00    +0.032 HD
BRANCH  69  71
ATOM     71  C   UNL     1     143.491 169.176 187.468  0.00  0.00    -0.060 C 
ATOM     72  H   UNL     1     144.469 169.305 186.990  0.00  0.00    +0.023 HD
ATOM     73  H   UNL     1     142.882 170.061 187.254  0.00  0.00    +0.023 HD
ATOM     74  H   UNL     1     143.015 168.317 186.987  0.00  0.00    +0.023 HD
ENDBRANCH  69  71
BRANCH  69  75
ATOM     75  C   UNL     1     144.950 169.614 189.513  0.00  0.00    -0.041 C 
ATOM     76  H   UNL     1     145.057 170.615 189.080  0.00  0.00    +0.027 HD
ATOM     77  H   UNL     1     144.818 169.778 190.591  0.00  0.00    +0.027 HD
BRANCH  75  78
ATOM     78  C   UNL     1     146.244 168.817 189.312  0.00  0.00    +0.007 C 
ATOM     79  H   UNL     1     147.030 169.444 188.893  0.00  0.00    +0.034 HD
ATOM     80  H   UNL     1     146.097 167.990 188.609  0.00  0.00    +0.034 HD
BRANCH  78  81
ATOM     81  C   UNL     1     146.714 168.187 190.615  0.00  0.00    +0.140 C 
ATOM     82  O   UNL     1     145.888 167.862 191.468  0.00  0.00    -0.297 OA
BRANCH  81  83
ATOM     83  C   UNL     1     148.206 167.858 190.761  0.00  0.00    +0.052 C 
ATOM     84  H   UNL     1     148.232 167.007 191.456  0.00  0.00    +0.041 HD
BRANCH  83  85
ATOM     85  C   UNL     1     148.840 167.368 189.460  0.00  0.00    -0.052 C 
ATOM     86  H   UNL     1     149.612 168.055 189.103  0.00  0.00    +0.024 HD
ATOM     87  H   UNL     1     148.088 167.287 188.669  0.00  0.00    +0.024 HD
ATOM     88  H   UNL     1     149.277 166.371 189.569  0.00  0.00    +0.024 HD
ENDBRANCH  83  85
BRANCH  83  89
ATOM     89  C   UNL     1     149.012 169.012 191.416  0.00  0.00    +0.118 C 
ATOM     90  H   UNL     1     149.522 169.607 190.645  0.00  0.00    +0.075 HD
BRANCH  89  91
ATOM     91  C   UNL     1     150.065 168.599 192.496  0.00  0.00    +0.014 C 
ATOM     92  H   UNL     1     149.701 168.963 193.458  0.00  0.00    +0.038 HD
BRANCH  91  93
ATOM     93  C   UNL     1     151.396 169.327 192.252  0.00  0.00    -0.056 C 
ATOM     94  H   UNL     1     151.515 170.181 192.930  0.00  0.00    +0.024 HD
ATOM     95  H   UNL     1     151.454 169.706 191.223  0.00  0.00    +0.024 HD
ATOM     96  H   UNL     1     152.249 168.658 192.401  0.00  0.00    +0.024 HD
ENDBRANCH  91  93
BRANCH  91  97
ATOM     97  C   UNL     1     150.336 167.118 192.545  0.00  0.00    -0.064 C 
ATOM     98  C   UNL     1     149.799 166.168 193.320  0.00  0.00    -0.010 C 
ATOM     99  H   UNL     1     151.052 166.772 191.797  0.00  0.00    +0.059 HD
ATOM    100  H   UNL     1     150.112 165.144 193.093  0.00  0.00    +0.078 HD
BRANCH  98 101
ATOM    101  N   UNL     1     148.896 166.188 194.368  0.00  0.00    -0.317 N 
BRANCH 101 102
ATOM    102  C   UNL     1     149.254 166.052 195.777  0.00  0.00    +0.002 C 
ATOM    103  H   UNL     1     149.340 164.996 196.059  0.00  0.00    +0.043 HD
ATOM    104  H   UNL     1     148.488 166.486 196.430  0.00  0.00    +0.043 HD
ATOM    105  H   UNL     1     150.195 166.568 195.985  0.00  0.00    +0.043 HD
ENDBRANCH 101 102
BRANCH 101 106
ATOM    106  C   UNL     1     147.469 166.326 194.122  0.00  0.00    +0.110 C 
ATOM    107  H   UNL     1     146.869 165.817 194.882  0.00  0.00    +0.077 HD
ATOM    108  H   UNL     1     147.188 165.919 193.146  0.00  0.00    +0.077 HD
BRANCH 106 109
ATOM    109  O   UNL     1     147.186 167.705 194.158  0.00  0.00    -0.377 OA
ATOM    110  H   UNL     1     146.750 167.784 195.024  0.00  0.00    +0.211 HD
ENDBRANCH 106 109
ENDBRANCH 101 106
ENDBRANCH  98 101
ENDBRANCH  91  97
ENDBRANCH  89  91
BRANCH  89 111
ATOM    111  O   UNL     1     148.054 169.870 192.109  0.00  0.00    -0.460 OA
BRANCH 111 112
ATOM    112  C   UNL     1     148.107 171.200 191.841  0.00  0.00    +0.304 C 
ATOM    113  O   UNL     1     147.796 171.727 190.783  0.00  0.00    -0.251 OA
BRANCH 112 114
ATOM    114  C   UNL     1     148.551 171.956 193.059  0.00  0.00    +0.033 C 
ATOM    115  H   UNL     1     147.686 172.268 193.655  0.00  0.00    +0.034 HD
ATOM    116  H   UNL     1     149.119 172.839 192.753  0.00  0.00    +0.034 HD
ATOM    117  H   UNL     1     149.169 171.304 193.683  0.00  0.00    +0.034 HD
ENDBRANCH 112 114
ENDBRANCH 111 112
ENDBRANCH  89 111
ENDBRANCH  83  89
ENDBRANCH  81  83
ENDBRANCH  78  81
ENDBRANCH  75  78
ENDBRANCH  69  75
ENDBRANCH  67  69
BRANCH  67 118
ATOM    118  O   UNL     1     141.704 168.135 190.196  0.00  0.00    -0.379 OA
BRANCH 118 119
ATOM    119  C   UNL     1     142.423 167.363 191.152  0.00  0.00    +0.037 C 
ATOM    120  H   UNL     1     141.774 166.550 191.489  0.00  0.00    +0.052 HD
ATOM    121  H   UNL     1     142.695 167.975 192.016  0.00  0.00    +0.052 HD
ATOM    122  H   UNL     1     143.317 166.922 190.712  0.00  0.00    +0.052 HD
ENDBRANCH 118 119
ENDBRANCH  67 118
ENDBRANCH  64  67
ENDBRANCH  13  64
BRANCH   8 123
ATOM    123  O   UNL     1     138.969 169.334 189.026  0.00  0.00    -0.391 OA
ATOM    124  H   UNL     1     139.666 169.364 189.704  0.00  0.00    +0.210 HD
ENDBRANCH   8 123
BRANCH  15 125
ATOM    125  O   UNL     1     141.101 174.152 190.151  0.00  0.00    -0.379 OA
BRANCH 125 126
ATOM    126  C   UNL     1     140.270 175.297 190.312  0.00  0.00    +0.037 C 
ATOM    127  H   UNL     1     139.257 175.104 189.943  0.00  0.00    +0.052 HD
ATOM    128  H   UNL     1     140.696 176.164 189.803  0.00  0.00    +0.052 HD
ATOM    129  H   UNL     1     140.206 175.521 191.378  0.00  0.00    +0.052 HD
ENDBRANCH 125 126
ENDBRANCH  15 125
TORSDOF 27
ENDMDL
MODEL 7
REMARK VINA RESULT:      -5.5      1.473      2.552
REMARK  Name = Ulapualide A_conf3
REMARK  27 active torsions:
REMARK  status: ('A' for Active; 'I' for Inactive)
REMARK    1  A    between atoms: C_1  and  C_2
REMARK    2  A    between atoms: C_9  and  O_63
REMARK    3  A    between atoms: C_14  and  C_38
REMARK    4  A    between atoms: C_15  and  C_37
REMARK    5  A    between atoms: C_16  and  O_35
REMARK    6  A    between atoms: O_35  and  C_36
REMARK    7  A    between atoms: C_38  and  C_39
REMARK    8  A    between atoms: C_39  and  C_40
REMARK    9  A    between atoms: C_39  and  O_61
REMARK   10  A    between atoms: C_40  and  C_41
REMARK   11  A    between atoms: C_40  and  C_42
REMARK   12  A    between atoms: C_42  and  C_43
REMARK   13  A    between atoms: C_43  and  C_44
REMARK   14  A    between atoms: C_44  and  C_46
REMARK   15  A    between atoms: C_46  and  C_47
REMARK   16  A    between atoms: C_46  and  C_48
REMARK   17  A    between atoms: C_48  and  C_49
REMARK   18  A    between atoms: C_48  and  O_57
REMARK   19  A    between atoms: C_49  and  C_50
REMARK   20  A    between atoms: C_49  and  C_51
REMARK   21  A    between atoms: C_52  and  N_53
REMARK   22  A    between atoms: N_53  and  C_54
REMARK   23  A    between atoms: N_53  and  C_55
REMARK   24  A    between atoms: C_55  and  O_56
REMARK   25  A    between atoms: O_57  and  C_58
REMARK   26  A    between atoms: C_58  and  C_60
REMARK   27  A    between atoms: O_61  and  C_62
REMARK                            x       y       z     vdW  Elec       q    Type
REMARK                         _______ _______ _______ _____ _____    ______ ____
ROOT
ATOM      1  C   UNL     1     153.515 166.560 187.141  0.00  0.00    +0.008 C 
ATOM      2  C   UNL     1     153.452 165.195 186.446  0.00  0.00    +0.014 C 
ATOM      3  C   UNL     1     152.128 164.473 186.650  0.00  0.00    +0.134 C 
ATOM      4  O   UNL     1     152.100 163.344 187.141  0.00  0.00    -0.297 OA
ATOM      5  C   UNL     1     150.880 165.182 186.150  0.00  0.00    +0.006 C 
ATOM      6  C   UNL     1     149.646 164.281 186.102  0.00  0.00    -0.044 C 
ATOM      7  C   UNL     1     148.503 164.982 185.368  0.00  0.00    -0.026 C 
ATOM      8  C   UNL     1     147.231 164.139 185.251  0.00  0.00    +0.065 C 
ATOM      9  C   UNL     1     146.572 163.755 186.572  0.00  0.00    +0.071 C 
ATOM     10  C   UNL     1     146.159 164.960 187.376  0.00  0.00    +0.310 C 
ATOM     11  O   UNL     1     146.909 165.590 188.108  0.00  0.00    -0.251 OA
ATOM     12  O   UNL     1     144.849 165.245 187.143  0.00  0.00    -0.461 OA
ATOM     13  C   UNL     1     144.239 166.298 187.922  0.00  0.00    +0.110 C 
ATOM     14  C   UNL     1     143.234 165.645 188.921  0.00  0.00    +0.020 C 
ATOM     15  C   UNL     1     143.895 164.720 189.997  0.00  0.00    +0.068 C 
ATOM     16  C   UNL     1     144.904 165.444 190.937  0.00  0.00    -0.008 C 
ATOM     17  C   UNL     1     144.297 165.746 192.288  0.00  0.00    -0.077 C 
ATOM     18  C   UNL     1     144.917 165.928 193.468  0.00  0.00    -0.003 C 
ATOM     19  C   UNL     1     146.322 165.923 193.690  0.00  0.00    +0.220 A 
ATOM     20  N   UNL     1     147.308 166.005 192.804  0.00  0.00    -0.205 NA
ATOM     21  C   UNL     1     148.468 165.981 193.543  0.00  0.00    +0.164 A 
ATOM     22  C   UNL     1     148.158 165.886 194.873  0.00  0.00    +0.125 A 
ATOM     23  O   UNL     1     146.808 165.856 194.988  0.00  0.00    -0.443 OA
ATOM     24  C   UNL     1     149.939 166.047 193.022  0.00  0.00    +0.250 A 
ATOM     25  N   UNL     1     150.304 166.180 191.758  0.00  0.00    -0.203 NA
ATOM     26  C   UNL     1     151.682 166.151 191.798  0.00  0.00    +0.164 A 
ATOM     27  C   UNL     1     152.105 166.016 193.094  0.00  0.00    +0.125 A 
ATOM     28  O   UNL     1     151.009 165.960 193.892  0.00  0.00    -0.442 OA
ATOM     29  C   UNL     1     152.669 166.245 190.589  0.00  0.00    +0.249 A 
ATOM     30  N   UNL     1     152.318 166.420 189.327  0.00  0.00    -0.212 NA
ATOM     31  C   UNL     1     153.505 166.414 188.629  0.00  0.00    +0.083 A 
ATOM     32  C   UNL     1     154.546 166.237 189.509  0.00  0.00    +0.116 A 
ATOM     33  O   UNL     1     154.034 166.142 190.761  0.00  0.00    -0.442 OA
ATOM     34  H   UNL     1     152.636 167.155 186.862  0.00  0.00    +0.037 HD
ATOM     35  H   UNL     1     154.255 164.540 186.804  0.00  0.00    +0.035 HD
ATOM     36  H   UNL     1     153.588 165.302 185.363  0.00  0.00    +0.035 HD
ATOM     37  H   UNL     1     151.104 165.546 185.142  0.00  0.00    +0.034 HD
ATOM     38  H   UNL     1     150.678 166.040 186.799  0.00  0.00    +0.034 HD
ATOM     39  H   UNL     1     149.354 164.021 187.125  0.00  0.00    +0.027 HD
ATOM     40  H   UNL     1     149.887 163.340 185.590  0.00  0.00    +0.027 HD
ATOM     41  H   UNL     1     148.834 165.239 184.353  0.00  0.00    +0.029 HD
ATOM     42  H   UNL     1     148.278 165.946 185.844  0.00  0.00    +0.029 HD
ATOM     43  H   UNL     1     147.478 163.218 184.708  0.00  0.00    +0.060 HD
ATOM     44  H   UNL     1     145.678 163.149 186.382  0.00  0.00    +0.040 HD
ATOM     45  H   UNL     1     147.229 163.138 187.192  0.00  0.00    +0.040 HD
ATOM     46  H   UNL     1     144.979 166.874 188.479  0.00  0.00    +0.074 HD
ATOM     47  H   UNL     1     142.586 164.986 188.325  0.00  0.00    +0.036 HD
ATOM     48  H   UNL     1     143.067 164.313 190.595  0.00  0.00    +0.060 HD
ATOM     49  H   UNL     1     145.805 164.836 191.056  0.00  0.00    +0.033 HD
ATOM     50  H   UNL     1     145.226 166.395 190.505  0.00  0.00    +0.033 HD
ATOM     51  H   UNL     1     143.212 165.823 192.314  0.00  0.00    +0.057 HD
ATOM     52  H   UNL     1     144.306 166.099 194.349  0.00  0.00    +0.067 HD
ATOM     53  H   UNL     1     148.726 165.838 195.790  0.00  0.00    +0.105 HD
ATOM     54  H   UNL     1     153.066 165.952 193.580  0.00  0.00    +0.105 HD
ATOM     55  H   UNL     1     155.620 166.155 189.420  0.00  0.00    +0.105 HD
ENDROOT
BRANCH   1  56
ATOM     56  C   UNL     1     154.735 167.343 186.644  0.00  0.00    -0.056 C 
ATOM     57  H   UNL     1     154.994 167.051 185.620  0.00  0.00    +0.024 HD
ATOM     58  H   UNL     1     155.614 167.167 187.275  0.00  0.00    +0.024 HD
ATOM     59  H   UNL     1     154.536 168.420 186.641  0.00  0.00    +0.024 HD
ENDBRANCH   1  56
BRANCH  14  60
ATOM     60  C   UNL     1     142.332 166.677 189.613  0.00  0.00    -0.057 C 
ATOM     61  H   UNL     1     142.908 167.346 190.259  0.00  0.00    +0.023 HD
ATOM     62  H   UNL     1     141.790 167.286 188.883  0.00  0.00    +0.023 HD
ATOM     63  H   UNL     1     141.566 166.184 190.222  0.00  0.00    +0.023 HD
ENDBRANCH  14  60
BRANCH  13  64
ATOM     64  C   UNL     1     143.563 167.229 186.895  0.00  0.00    +0.011 C 
ATOM     65  H   UNL     1     142.517 167.384 187.173  0.00  0.00    +0.033 HD
ATOM     66  H   UNL     1     143.597 166.744 185.911  0.00  0.00    +0.033 HD
BRANCH  64  67
ATOM     67  C   UNL     1     144.229 168.622 186.798  0.00  0.00    +0.064 C 
ATOM     68  H   UNL     1     143.939 169.236 187.662  0.00  0.00    +0.060 HD
BRANCH  67  69
ATOM     69  C   UNL     1     145.784 168.519 186.795  0.00  0.00    -0.017 C 
ATOM     70  H   UNL     1     146.022 167.591 187.336  0.00  0.00    +0.032 HD
BRANCH  69  71
ATOM     71  C   UNL     1     146.388 168.371 185.392  0.00  0.00    -0.060 C 
ATOM     72  H   UNL     1     145.669 168.690 184.628  0.00  0.00    +0.023 HD
ATOM     73  H   UNL     1     146.678 167.335 185.182  0.00  0.00    +0.023 HD
ATOM     74  H   UNL     1     147.275 168.999 185.273  0.00  0.00    +0.023 HD
ENDBRANCH  69  71
BRANCH  69  75
ATOM     75  C   UNL     1     146.465 169.666 187.587  0.00  0.00    -0.041 C 
ATOM     76  H   UNL     1     147.088 170.261 186.910  0.00  0.00    +0.027 HD
ATOM     77  H   UNL     1     145.674 170.348 187.927  0.00  0.00    +0.027 HD
BRANCH  75  78
ATOM     78  C   UNL     1     147.282 169.242 188.813  0.00  0.00    +0.007 C 
ATOM     79  H   UNL     1     148.207 169.812 188.885  0.00  0.00    +0.034 HD
ATOM     80  H   UNL     1     147.570 168.186 188.752  0.00  0.00    +0.034 HD
BRANCH  78  81
ATOM     81  C   UNL     1     146.473 169.387 190.094  0.00  0.00    +0.140 C 
ATOM     82  O   UNL     1     146.952 169.008 191.163  0.00  0.00    -0.297 OA
BRANCH  81  83
ATOM     83  C   UNL     1     145.132 170.129 190.021  0.00  0.00    +0.052 C 
ATOM     84  H   UNL     1     144.915 170.197 188.946  0.00  0.00    +0.041 HD
BRANCH  83  85
ATOM     85  C   UNL     1     143.979 169.340 190.640  0.00  0.00    -0.052 C 
ATOM     86  H   UNL     1     143.047 169.911 190.628  0.00  0.00    +0.024 HD
ATOM     87  H   UNL     1     144.194 169.094 191.685  0.00  0.00    +0.024 HD
ATOM     88  H   UNL     1     143.816 168.387 190.129  0.00  0.00    +0.024 HD
ENDBRANCH  83  85
BRANCH  83  89
ATOM     89  C   UNL     1     145.219 171.580 190.567  0.00  0.00    +0.118 C 
ATOM     90  H   UNL     1     145.222 171.574 191.666  0.00  0.00    +0.075 HD
BRANCH  89  91
ATOM     91  C   UNL     1     144.112 172.572 190.083  0.00  0.00    +0.014 C 
ATOM     92  H   UNL     1     144.591 173.541 189.932  0.00  0.00    +0.038 HD
BRANCH  91  93
ATOM     93  C   UNL     1     143.069 172.791 191.190  0.00  0.00    -0.056 C 
ATOM     94  H   UNL     1     142.756 173.841 191.243  0.00  0.00    +0.024 HD
ATOM     95  H   UNL     1     143.473 172.513 192.172  0.00  0.00    +0.024 HD
ATOM     96  H   UNL     1     142.175 172.183 191.021  0.00  0.00    +0.024 HD
ENDBRANCH  91  93
BRANCH  91  97
ATOM     97  C   UNL     1     143.394 172.122 188.837  0.00  0.00    -0.064 C 
ATOM     98  C   UNL     1     143.544 172.515 187.566  0.00  0.00    -0.010 C 
ATOM     99  H   UNL     1     142.674 171.319 189.004  0.00  0.00    +0.059 HD
ATOM    100  H   UNL     1     142.952 171.961 186.831  0.00  0.00    +0.078 HD
BRANCH  98 101
ATOM    101  N   UNL     1     144.316 173.484 186.951  0.00  0.00    -0.317 N 
BRANCH 101 102
ATOM    102  C   UNL     1     143.895 174.864 186.729  0.00  0.00    +0.002 C 
ATOM    103  H   UNL     1     143.039 175.120 187.365  0.00  0.00    +0.043 HD
ATOM    104  H   UNL     1     143.570 175.023 185.694  0.00  0.00    +0.043 HD
ATOM    105  H   UNL     1     144.720 175.554 186.924  0.00  0.00    +0.043 HD
ENDBRANCH 101 102
BRANCH 101 106
ATOM    106  C   UNL     1     145.642 173.172 186.442  0.00  0.00    +0.110 C 
ATOM    107  H   UNL     1     145.943 173.848 185.635  0.00  0.00    +0.077 HD
ATOM    108  H   UNL     1     145.694 172.148 186.057  0.00  0.00    +0.077 HD
BRANCH 106 109
ATOM    109  O   UNL     1     146.533 173.316 187.522  0.00  0.00    -0.377 OA
ATOM    110  H   UNL     1     146.084 172.792 188.207  0.00  0.00    +0.211 HD
ENDBRANCH 106 109
ENDBRANCH 101 106
ENDBRANCH  98 101
ENDBRANCH  91  97
ENDBRANCH  89  91
BRANCH  89 111
ATOM    111  O   UNL     1     146.483 172.143 190.100  0.00  0.00    -0.460 OA
BRANCH 111 112
ATOM    112  C   UNL     1     147.437 172.387 191.036  0.00  0.00    +0.304 C 
ATOM    113  O   UNL     1     148.628 172.143 190.920  0.00  0.00    -0.251 OA
BRANCH 112 114
ATOM    114  C   UNL     1     146.828 173.060 192.230  0.00  0.00    +0.033 C 
ATOM    115  H   UNL     1     146.007 173.718 191.925  0.00  0.00    +0.034 HD
ATOM    116  H   UNL     1     147.592 173.648 192.747  0.00  0.00    +0.034 HD
ATOM    117  H   UNL     1     146.415 172.301 192.902  0.00  0.00    +0.034 HD
ENDBRANCH 112 114
ENDBRANCH 111 112
ENDBRANCH  89 111
ENDBRANCH  83  89
ENDBRANCH  81  83
ENDBRANCH  78  81
ENDBRANCH  75  78
ENDBRANCH  69  75
ENDBRANCH  67  69
BRANCH  67 118
ATOM    118  O   UNL     1     143.796 169.233 185.574  0.00  0.00    -0.379 OA
BRANCH 118 119
ATOM    119  C   UNL     1     142.637 168.618 185.022  0.00  0.00    +0.037 C 
ATOM    120  H   UNL     1     141.866 169.386 184.909  0.00  0.00    +0.052 HD
ATOM    121  H   UNL     1     142.259 167.838 185.690  0.00  0.00    +0.052 HD
ATOM    122  H   UNL     1     142.842 168.198 184.038  0.00  0.00    +0.052 HD
ENDBRANCH 118 119
ENDBRANCH  67 118
ENDBRANCH  64  67
ENDBRANCH  13  64
BRANCH   8 123
ATOM    123  O   UNL     1     146.311 164.858 184.423  0.00  0.00    -0.391 OA
ATOM    124  H   UNL     1     145.902 164.223 183.808  0.00  0.00    +0.210 HD
ENDBRANCH   8 123
BRANCH  15 125
ATOM    125  O   UNL     1     144.488 163.591 189.332  0.00  0.00    -0.379 OA
BRANCH 125 126
ATOM    126  C   UNL     1     143.557 162.564 189.007  0.00  0.00    +0.037 C 
ATOM    127  H   UNL     1     142.646 162.983 188.565  0.00  0.00    +0.052 HD
ATOM    128  H   UNL     1     143.308 161.969 189.886  0.00  0.00    +0.052 HD
ATOM    129  H   UNL     1     144.022 161.909 188.268  0.00  0.00    +0.052 HD
ENDBRANCH 125 126
ENDBRANCH  15 125
TORSDOF 27
ENDMDL
MODEL 8
REMARK VINA RESULT:      -5.4      4.078     11.089
REMARK  Name = Ulapualide A_conf3
REMARK  27 active torsions:
REMARK  status: ('A' for Active; 'I' for Inactive)
REMARK    1  A    between atoms: C_1  and  C_2
REMARK    2  A    between atoms: C_9  and  O_63
REMARK    3  A    between atoms: C_14  and  C_38
REMARK    4  A    between atoms: C_15  and  C_37
REMARK    5  A    between atoms: C_16  and  O_35
REMARK    6  A    between atoms: O_35  and  C_36
REMARK    7  A    between atoms: C_38  and  C_39
REMARK    8  A    between atoms: C_39  and  C_40
REMARK    9  A    between atoms: C_39  and  O_61
REMARK   10  A    between atoms: C_40  and  C_41
REMARK   11  A    between atoms: C_40  and  C_42
REMARK   12  A    between atoms: C_42  and  C_43
REMARK   13  A    between atoms: C_43  and  C_44
REMARK   14  A    between atoms: C_44  and  C_46
REMARK   15  A    between atoms: C_46  and  C_47
REMARK   16  A    between atoms: C_46  and  C_48
REMARK   17  A    between atoms: C_48  and  C_49
REMARK   18  A    between atoms: C_48  and  O_57
REMARK   19  A    between atoms: C_49  and  C_50
REMARK   20  A    between atoms: C_49  and  C_51
REMARK   21  A    between atoms: C_52  and  N_53
REMARK   22  A    between atoms: N_53  and  C_54
REMARK   23  A    between atoms: N_53  and  C_55
REMARK   24  A    between atoms: C_55  and  O_56
REMARK   25  A    between atoms: O_57  and  C_58
REMARK   26  A    between atoms: C_58  and  C_60
REMARK   27  A    between atoms: O_61  and  C_62
REMARK                            x       y       z     vdW  Elec       q    Type
REMARK                         _______ _______ _______ _____ _____    ______ ____
ROOT
ATOM      1  C   UNL     1     140.812 175.607 194.787  0.00  0.00    +0.008 C 
ATOM      2  C   UNL     1     139.557 174.771 194.507  0.00  0.00    +0.014 C 
ATOM      3  C   UNL     1     139.597 174.051 193.167  0.00  0.00    +0.134 C 
ATOM      4  O   UNL     1     138.706 174.227 192.335  0.00  0.00    -0.297 OA
ATOM      5  C   UNL     1     140.733 173.064 192.956  0.00  0.00    +0.006 C 
ATOM      6  C   UNL     1     140.537 172.161 191.738  0.00  0.00    -0.044 C 
ATOM      7  C   UNL     1     141.582 171.045 191.728  0.00  0.00    -0.026 C 
ATOM      8  C   UNL     1     141.444 170.076 190.552  0.00  0.00    +0.065 C 
ATOM      9  C   UNL     1     141.623 170.691 189.168  0.00  0.00    +0.071 C 
ATOM     10  C   UNL     1     142.983 171.314 188.992  0.00  0.00    +0.310 C 
ATOM     11  O   UNL     1     143.279 172.441 189.364  0.00  0.00    -0.251 OA
ATOM     12  O   UNL     1     143.822 170.431 188.385  0.00  0.00    -0.461 OA
ATOM     13  C   UNL     1     145.141 170.894 188.021  0.00  0.00    +0.110 C 
ATOM     14  C   UNL     1     145.206 171.006 186.466  0.00  0.00    +0.020 C 
ATOM     15  C   UNL     1     144.249 172.082 185.851  0.00  0.00    +0.068 C 
ATOM     16  C   UNL     1     144.533 173.540 186.320  0.00  0.00    -0.008 C 
ATOM     17  C   UNL     1     145.285 174.330 185.275  0.00  0.00    -0.077 C 
ATOM     18  C   UNL     1     145.321 175.662 185.091  0.00  0.00    -0.003 C 
ATOM     19  C   UNL     1     144.678 176.641 185.898  0.00  0.00    +0.220 A 
ATOM     20  N   UNL     1     144.145 176.508 187.107  0.00  0.00    -0.205 NA
ATOM     21  C   UNL     1     143.679 177.758 187.441  0.00  0.00    +0.164 A 
ATOM     22  C   UNL     1     143.943 178.631 186.421  0.00  0.00    +0.125 A 
ATOM     23  O   UNL     1     144.580 177.948 185.439  0.00  0.00    -0.443 OA
ATOM     24  C   UNL     1     142.954 178.191 188.757  0.00  0.00    +0.250 A 
ATOM     25  N   UNL     1     142.707 177.409 189.794  0.00  0.00    -0.203 NA
ATOM     26  C   UNL     1     142.028 178.222 190.676  0.00  0.00    +0.164 A 
ATOM     27  C   UNL     1     141.901 179.479 190.145  0.00  0.00    +0.125 A 
ATOM     28  O   UNL     1     142.497 179.483 188.926  0.00  0.00    -0.442 OA
ATOM     29  C   UNL     1     141.457 177.833 192.079  0.00  0.00    +0.249 A 
ATOM     30  N   UNL     1     141.589 176.651 192.657  0.00  0.00    -0.212 NA
ATOM     31  C   UNL     1     140.912 176.768 193.851  0.00  0.00    +0.083 A 
ATOM     32  C   UNL     1     140.391 178.036 193.953  0.00  0.00    +0.116 A 
ATOM     33  O   UNL     1     140.740 178.731 192.842  0.00  0.00    -0.442 OA
ATOM     34  H   UNL     1     141.706 174.987 194.640  0.00  0.00    +0.037 HD
ATOM     35  H   UNL     1     138.660 175.400 194.529  0.00  0.00    +0.035 HD
ATOM     36  H   UNL     1     139.424 173.999 195.275  0.00  0.00    +0.035 HD
ATOM     37  H   UNL     1     140.791 172.448 193.860  0.00  0.00    +0.034 HD
ATOM     38  H   UNL     1     141.669 173.621 192.847  0.00  0.00    +0.034 HD
ATOM     39  H   UNL     1     140.604 172.769 190.829  0.00  0.00    +0.027 HD
ATOM     40  H   UNL     1     139.532 171.721 191.754  0.00  0.00    +0.027 HD
ATOM     41  H   UNL     1     141.494 170.466 192.657  0.00  0.00    +0.029 HD
ATOM     42  H   UNL     1     142.595 171.470 191.754  0.00  0.00    +0.029 HD
ATOM     43  H   UNL     1     140.448 169.618 190.599  0.00  0.00    +0.060 HD
ATOM     44  H   UNL     1     141.499 169.920 188.397  0.00  0.00    +0.040 HD
ATOM     45  H   UNL     1     140.867 171.454 188.958  0.00  0.00    +0.040 HD
ATOM     46  H   UNL     1     145.368 171.866 188.463  0.00  0.00    +0.074 HD
ATOM     47  H   UNL     1     144.857 170.041 186.070  0.00  0.00    +0.036 HD
ATOM     48  H   UNL     1     144.382 172.016 184.761  0.00  0.00    +0.060 HD
ATOM     49  H   UNL     1     143.593 174.041 186.567  0.00  0.00    +0.033 HD
ATOM     50  H   UNL     1     145.137 173.546 187.230  0.00  0.00    +0.033 HD
ATOM     51  H   UNL     1     145.875 173.746 184.571  0.00  0.00    +0.057 HD
ATOM     52  H   UNL     1     145.893 176.051 184.253  0.00  0.00    +0.067 HD
ATOM     53  H   UNL     1     143.766 179.682 186.247  0.00  0.00    +0.105 HD
ATOM     54  H   UNL     1     141.458 180.405 190.476  0.00  0.00    +0.105 HD
ATOM     55  H   UNL     1     139.793 178.563 194.683  0.00  0.00    +0.105 HD
ENDROOT
BRANCH   1  56
ATOM     56  C   UNL     1     140.832 176.043 196.255  0.00  0.00    -0.056 C 
ATOM     57  H   UNL     1     139.816 176.236 196.618  0.00  0.00    +0.024 HD
ATOM     58  H   UNL     1     141.417 176.959 196.398  0.00  0.00    +0.024 HD
ATOM     59  H   UNL     1     141.269 175.266 196.891  0.00  0.00    +0.024 HD
ENDBRANCH   1  56
BRANCH  14  60
ATOM     60  C   UNL     1     146.634 171.230 185.947  0.00  0.00    -0.057 C 
ATOM     61  H   UNL     1     146.804 170.710 185.000  0.00  0.00    +0.023 HD
ATOM     62  H   UNL     1     146.843 172.293 185.799  0.00  0.00    +0.023 HD
ATOM     63  H   UNL     1     147.374 170.876 186.673  0.00  0.00    +0.023 HD
ENDBRANCH  14  60
BRANCH  13  64
ATOM     64  C   UNL     1     146.118 169.851 188.601  0.00  0.00    +0.011 C 
ATOM     65  H   UNL     1     146.084 169.884 189.694  0.00  0.00    +0.033 HD
ATOM     66  H   UNL     1     147.134 170.107 188.273  0.00  0.00    +0.033 HD
BRANCH  64  67
ATOM     67  C   UNL     1     145.795 168.401 188.169  0.00  0.00    +0.064 C 
ATOM     68  H   UNL     1     145.481 168.386 187.116  0.00  0.00    +0.060 HD
BRANCH  67  69
ATOM     69  C   UNL     1     147.036 167.470 188.304  0.00  0.00    -0.017 C 
ATOM     70  H   UNL     1     146.646 166.501 188.647  0.00  0.00    +0.032 HD
BRANCH  69  71
ATOM     71  C   UNL     1     147.751 167.202 186.972  0.00  0.00    -0.060 C 
ATOM     72  H   UNL     1     148.721 167.712 186.946  0.00  0.00    +0.023 HD
ATOM     73  H   UNL     1     147.158 167.545 186.117  0.00  0.00    +0.023 HD
ATOM     74  H   UNL     1     147.952 166.136 186.836  0.00  0.00    +0.023 HD
ENDBRANCH  69  71
BRANCH  69  75
ATOM     75  C   UNL     1     148.031 167.946 189.395  0.00  0.00    -0.041 C 
ATOM     76  H   UNL     1     149.014 168.123 188.945  0.00  0.00    +0.027 HD
ATOM     77  H   UNL     1     147.692 168.930 189.746  0.00  0.00    +0.027 HD
BRANCH  75  78
ATOM     78  C   UNL     1     148.173 167.032 190.618  0.00  0.00    +0.007 C 
ATOM     79  H   UNL     1     149.209 166.977 190.948  0.00  0.00    +0.034 HD
ATOM     80  H   UNL     1     147.865 166.006 190.385  0.00  0.00    +0.034 HD
BRANCH  78  81
ATOM     81  C   UNL     1     147.280 167.493 191.760  0.00  0.00    +0.140 C 
ATOM     82  O   UNL     1     147.582 168.500 192.402  0.00  0.00    -0.297 OA
BRANCH  81  83
ATOM     83  C   UNL     1     145.956 166.751 191.987  0.00  0.00    +0.052 C 
ATOM     84  H   UNL     1     145.199 167.390 191.513  0.00  0.00    +0.041 HD
BRANCH  83  85
ATOM     85  C   UNL     1     145.894 165.405 191.264  0.00  0.00    -0.052 C 
ATOM     86  H   UNL     1     146.882 164.946 191.183  0.00  0.00    +0.024 HD
ATOM     87  H   UNL     1     145.510 165.530 190.247  0.00  0.00    +0.024 HD
ATOM     88  H   UNL     1     145.218 164.706 191.763  0.00  0.00    +0.024 HD
ENDBRANCH  83  85
BRANCH  83  89
ATOM     89  C   UNL     1     145.585 166.634 193.490  0.00  0.00    +0.118 C 
ATOM     90  H   UNL     1     145.525 167.632 193.947  0.00  0.00    +0.075 HD
BRANCH  89  91
ATOM     91  C   UNL     1     146.525 165.747 194.371  0.00  0.00    +0.014 C 
ATOM     92  H   UNL     1     147.171 165.189 193.692  0.00  0.00    +0.038 HD
BRANCH  91  93
ATOM     93  C   UNL     1     145.707 164.691 195.131  0.00  0.00    -0.056 C 
ATOM     94  H   UNL     1     145.758 164.848 196.215  0.00  0.00    +0.024 HD
ATOM     95  H   UNL     1     146.080 163.680 194.920  0.00  0.00    +0.024 HD
ATOM     96  H   UNL     1     144.653 164.717 194.837  0.00  0.00    +0.024 HD
ENDBRANCH  91  93
BRANCH  91  97
ATOM     97  C   UNL     1     147.337 166.528 195.371  0.00  0.00    -0.064 C 
ATOM     98  C   UNL     1     148.640 166.452 195.672  0.00  0.00    -0.010 C 
ATOM     99  H   UNL     1     146.774 167.303 195.894  0.00  0.00    +0.059 HD
ATOM    100  H   UNL     1     149.002 167.201 196.383  0.00  0.00    +0.078 HD
BRANCH  98 101
ATOM    101  N   UNL     1     149.668 165.623 195.260  0.00  0.00    -0.317 N 
BRANCH 101 102
ATOM    102  C   UNL     1     150.083 165.441 193.872  0.00  0.00    +0.002 C 
ATOM    103  H   UNL     1     151.110 165.796 193.720  0.00  0.00    +0.043 HD
ATOM    104  H   UNL     1     149.452 166.018 193.186  0.00  0.00    +0.043 HD
ATOM    105  H   UNL     1     150.009 164.390 193.583  0.00  0.00    +0.043 HD
ENDBRANCH 101 102
BRANCH 101 106
ATOM    106  C   UNL     1     150.414 164.825 196.219  0.00  0.00    +0.110 C 
ATOM    107  H   UNL     1     149.777 164.444 197.023  0.00  0.00    +0.077 HD
ATOM    108  H   UNL     1     151.223 165.403 196.680  0.00  0.00    +0.077 HD
BRANCH 106 109
ATOM    109  O   UNL     1     150.957 163.740 195.506  0.00  0.00    -0.377 OA
ATOM    110  H   UNL     1     150.615 162.988 196.019  0.00  0.00    +0.211 HD
ENDBRANCH 106 109
ENDBRANCH 101 106
ENDBRANCH  98 101
ENDBRANCH  91  97
ENDBRANCH  89  91
BRANCH  89 111
ATOM    111  O   UNL     1     144.269 166.006 193.565  0.00  0.00    -0.460 OA
BRANCH 111 112
ATOM    112  C   UNL     1     143.193 166.788 193.290  0.00  0.00    +0.304 C 
ATOM    113  O   UNL     1     143.082 167.972 193.570  0.00  0.00    -0.251 OA
BRANCH 112 114
ATOM    114  C   UNL     1     142.163 166.003 192.533  0.00  0.00    +0.033 C 
ATOM    115  H   UNL     1     141.692 165.257 193.183  0.00  0.00    +0.034 HD
ATOM    116  H   UNL     1     142.637 165.498 191.687  0.00  0.00    +0.034 HD
ATOM    117  H   UNL     1     141.379 166.680 192.180  0.00  0.00    +0.034 HD
ENDBRANCH 112 114
ENDBRANCH 111 112
ENDBRANCH  89 111
ENDBRANCH  83  89
ENDBRANCH  81  83
ENDBRANCH  78  81
ENDBRANCH  75  78
ENDBRANCH  69  75
ENDBRANCH  67  69
BRANCH  67 118
ATOM    118  O   UNL     1     144.746 167.913 189.018  0.00  0.00    -0.379 OA
BRANCH 118 119
ATOM    119  C   UNL     1     143.989 166.864 188.423  0.00  0.00    +0.037 C 
ATOM    120  H   UNL     1     144.040 166.982 187.336  0.00  0.00    +0.052 HD
ATOM    121  H   UNL     1     142.942 166.919 188.733  0.00  0.00    +0.052 HD
ATOM    122  H   UNL     1     144.400 165.887 188.675  0.00  0.00    +0.052 HD
ENDBRANCH 118 119
ENDBRANCH  67 118
ENDBRANCH  64  67
ENDBRANCH  13  64
BRANCH   8 123
ATOM    123  O   UNL     1     142.383 169.015 190.753  0.00  0.00    -0.391 OA
ATOM    124  H   UNL     1     143.228 169.282 190.351  0.00  0.00    +0.210 HD
ENDBRANCH   8 123
BRANCH  15 125
ATOM    125  O   UNL     1     142.890 171.686 186.103  0.00  0.00    -0.379 OA
BRANCH 125 126
ATOM    126  C   UNL     1     142.047 171.771 184.958  0.00  0.00    +0.037 C 
ATOM    127  H   UNL     1     142.475 172.439 184.203  0.00  0.00    +0.052 HD
ATOM    128  H   UNL     1     141.046 172.106 185.233  0.00  0.00    +0.052 HD
ATOM    129  H   UNL     1     141.968 170.774 184.522  0.00  0.00    +0.052 HD
ENDBRANCH 125 126
ENDBRANCH  15 125
TORSDOF 27
ENDMDL
MODEL 9
REMARK VINA RESULT:      -5.3      6.037     12.330
REMARK  Name = Ulapualide A_conf3
REMARK  27 active torsions:
REMARK  status: ('A' for Active; 'I' for Inactive)
REMARK    1  A    between atoms: C_1  and  C_2
REMARK    2  A    between atoms: C_9  and  O_63
REMARK    3  A    between atoms: C_14  and  C_38
REMARK    4  A    between atoms: C_15  and  C_37
REMARK    5  A    between atoms: C_16  and  O_35
REMARK    6  A    between atoms: O_35  and  C_36
REMARK    7  A    between atoms: C_38  and  C_39
REMARK    8  A    between atoms: C_39  and  C_40
REMARK    9  A    between atoms: C_39  and  O_61
REMARK   10  A    between atoms: C_40  and  C_41
REMARK   11  A    between atoms: C_40  and  C_42
REMARK   12  A    between atoms: C_42  and  C_43
REMARK   13  A    between atoms: C_43  and  C_44
REMARK   14  A    between atoms: C_44  and  C_46
REMARK   15  A    between atoms: C_46  and  C_47
REMARK   16  A    between atoms: C_46  and  C_48
REMARK   17  A    between atoms: C_48  and  C_49
REMARK   18  A    between atoms: C_48  and  O_57
REMARK   19  A    between atoms: C_49  and  C_50
REMARK   20  A    between atoms: C_49  and  C_51
REMARK   21  A    between atoms: C_52  and  N_53
REMARK   22  A    between atoms: N_53  and  C_54
REMARK   23  A    between atoms: N_53  and  C_55
REMARK   24  A    between atoms: C_55  and  O_56
REMARK   25  A    between atoms: O_57  and  C_58
REMARK   26  A    between atoms: C_58  and  C_60
REMARK   27  A    between atoms: O_61  and  C_62
REMARK                            x       y       z     vdW  Elec       q    Type
REMARK                         _______ _______ _______ _____ _____    ______ ____
ROOT
ATOM      1  C   UNL     1     133.386 170.115 194.485  0.00  0.00    +0.008 C 
ATOM      2  C   UNL     1     132.858 170.377 193.069  0.00  0.00    +0.014 C 
ATOM      3  C   UNL     1     133.878 171.038 192.156  0.00  0.00    +0.134 C 
ATOM      4  O   UNL     1     133.621 172.107 191.599  0.00  0.00    -0.297 OA
ATOM      5  C   UNL     1     135.173 170.279 191.914  0.00  0.00    +0.006 C 
ATOM      6  C   UNL     1     136.003 170.841 190.760  0.00  0.00    -0.044 C 
ATOM      7  C   UNL     1     137.154 169.893 190.421  0.00  0.00    -0.026 C 
ATOM      8  C   UNL     1     138.025 170.368 189.256  0.00  0.00    +0.065 C 
ATOM      9  C   UNL     1     138.755 171.688 189.475  0.00  0.00    +0.071 C 
ATOM     10  C   UNL     1     139.691 171.634 190.655  0.00  0.00    +0.310 C 
ATOM     11  O   UNL     1     139.347 171.806 191.816  0.00  0.00    -0.251 OA
ATOM     12  O   UNL     1     140.952 171.345 190.233  0.00  0.00    -0.461 OA
ATOM     13  C   UNL     1     142.014 171.371 191.212  0.00  0.00    +0.110 C 
ATOM     14  C   UNL     1     142.914 172.613 190.921  0.00  0.00    +0.020 C 
ATOM     15  C   UNL     1     142.199 173.992 191.109  0.00  0.00    +0.068 C 
ATOM     16  C   UNL     1     141.686 174.261 192.555  0.00  0.00    -0.008 C 
ATOM     17  C   UNL     1     142.603 175.193 193.312  0.00  0.00    -0.077 C 
ATOM     18  C   UNL     1     142.315 175.998 194.351  0.00  0.00    -0.003 C 
ATOM     19  C   UNL     1     141.058 176.107 195.007  0.00  0.00    +0.220 A 
ATOM     20  N   UNL     1     140.007 175.298 194.939  0.00  0.00    -0.205 NA
ATOM     21  C   UNL     1     139.068 175.846 195.781  0.00  0.00    +0.164 A 
ATOM     22  C   UNL     1     139.574 176.983 196.350  0.00  0.00    +0.125 A 
ATOM     23  O   UNL     1     140.832 177.162 195.881  0.00  0.00    -0.443 OA
ATOM     24  C   UNL     1     137.632 175.313 196.093  0.00  0.00    +0.250 A 
ATOM     25  N   UNL     1     137.100 174.203 195.611  0.00  0.00    -0.203 NA
ATOM     26  C   UNL     1     135.825 174.182 196.135  0.00  0.00    +0.164 A 
ATOM     27  C   UNL     1     135.635 175.279 196.934  0.00  0.00    +0.125 A 
ATOM     28  O   UNL     1     136.780 176.007 196.930  0.00  0.00    -0.442 OA
ATOM     29  C   UNL     1     134.716 173.108 195.893  0.00  0.00    +0.249 A 
ATOM     30  N   UNL     1     134.860 172.010 195.170  0.00  0.00    -0.212 NA
ATOM     31  C   UNL     1     133.629 171.394 195.220  0.00  0.00    +0.083 A 
ATOM     32  C   UNL     1     132.775 172.151 195.987  0.00  0.00    +0.116 A 
ATOM     33  O   UNL     1     133.453 173.237 196.433  0.00  0.00    -0.442 OA
ATOM     34  H   UNL     1     134.344 169.582 194.426  0.00  0.00    +0.037 HD
ATOM     35  H   UNL     1     131.966 171.013 193.100  0.00  0.00    +0.035 HD
ATOM     36  H   UNL     1     132.562 169.438 192.584  0.00  0.00    +0.035 HD
ATOM     37  H   UNL     1     134.896 169.242 191.693  0.00  0.00    +0.034 HD
ATOM     38  H   UNL     1     135.768 170.297 192.833  0.00  0.00    +0.034 HD
ATOM     39  H   UNL     1     136.380 171.830 191.041  0.00  0.00    +0.027 HD
ATOM     40  H   UNL     1     135.369 170.980 189.875  0.00  0.00    +0.027 HD
ATOM     41  H   UNL     1     136.740 168.910 190.158  0.00  0.00    +0.029 HD
ATOM     42  H   UNL     1     137.772 169.711 191.310  0.00  0.00    +0.029 HD
ATOM     43  H   UNL     1     137.387 170.470 188.369  0.00  0.00    +0.060 HD
ATOM     44  H   UNL     1     139.344 171.943 188.585  0.00  0.00    +0.040 HD
ATOM     45  H   UNL     1     138.061 172.519 189.628  0.00  0.00    +0.040 HD
ATOM     46  H   UNL     1     141.628 171.435 192.231  0.00  0.00    +0.074 HD
ATOM     47  H   UNL     1     143.180 172.561 189.855  0.00  0.00    +0.036 HD
ATOM     48  H   UNL     1     142.941 174.756 190.836  0.00  0.00    +0.060 HD
ATOM     49  H   UNL     1     140.674 174.673 192.521  0.00  0.00    +0.033 HD
ATOM     50  H   UNL     1     141.624 173.331 193.126  0.00  0.00    +0.033 HD
ATOM     51  H   UNL     1     143.636 175.224 192.971  0.00  0.00    +0.057 HD
ATOM     52  H   UNL     1     143.103 176.633 194.744  0.00  0.00    +0.067 HD
ATOM     53  H   UNL     1     139.207 177.716 197.053  0.00  0.00    +0.105 HD
ATOM     54  H   UNL     1     134.818 175.657 197.529  0.00  0.00    +0.105 HD
ATOM     55  H   UNL     1     131.739 172.074 196.284  0.00  0.00    +0.105 HD
ENDROOT
BRANCH   1  56
ATOM     56  C   UNL     1     132.427 169.187 195.238  0.00  0.00    -0.056 C 
ATOM     57  H   UNL     1     132.508 169.340 196.320  0.00  0.00    +0.024 HD
ATOM     58  H   UNL     1     132.639 168.132 195.033  0.00  0.00    +0.024 HD
ATOM     59  H   UNL     1     131.387 169.381 194.952  0.00  0.00    +0.024 HD
ENDBRANCH   1  56
BRANCH  14  60
ATOM     60  C   UNL     1     144.222 172.596 191.725  0.00  0.00    -0.057 C 
ATOM     61  H   UNL     1     144.173 173.268 192.587  0.00  0.00    +0.023 HD
ATOM     62  H   UNL     1     144.456 171.590 192.085  0.00  0.00    +0.023 HD
ATOM     63  H   UNL     1     145.070 172.898 191.101  0.00  0.00    +0.023 HD
ENDBRANCH  14  60
BRANCH  13  64
ATOM     64  C   UNL     1     142.754 170.028 191.052  0.00  0.00    +0.011 C 
ATOM     65  H   UNL     1     142.623 169.426 191.956  0.00  0.00    +0.033 HD
ATOM     66  H   UNL     1     143.824 170.234 190.919  0.00  0.00    +0.033 HD
BRANCH  64  67
ATOM     67  C   UNL     1     142.247 169.186 189.857  0.00  0.00    +0.064 C 
ATOM     68  H   UNL     1     141.440 169.723 189.338  0.00  0.00    +0.060 HD
BRANCH  67  69
ATOM     69  C   UNL     1     143.378 168.917 188.820  0.00  0.00    -0.017 C 
ATOM     70  H   UNL     1     144.196 168.447 189.386  0.00  0.00    +0.032 HD
BRANCH  69  71
ATOM     71  C   UNL     1     142.981 167.921 187.722  0.00  0.00    -0.060 C 
ATOM     72  H   UNL     1     143.144 168.357 186.729  0.00  0.00    +0.023 HD
ATOM     73  H   UNL     1     141.929 167.627 187.801  0.00  0.00    +0.023 HD
ATOM     74  H   UNL     1     143.589 167.013 187.771  0.00  0.00    +0.023 HD
ENDBRANCH  69  71
BRANCH  69  75
ATOM     75  C   UNL     1     143.965 170.221 188.218  0.00  0.00    -0.041 C 
ATOM     76  H   UNL     1     143.412 170.489 187.310  0.00  0.00    +0.027 HD
ATOM     77  H   UNL     1     143.763 171.034 188.928  0.00  0.00    +0.027 HD
BRANCH  75  78
ATOM     78  C   UNL     1     145.470 170.209 187.929  0.00  0.00    +0.007 C 
ATOM     79  H   UNL     1     145.693 170.710 186.988  0.00  0.00    +0.034 HD
ATOM     80  H   UNL     1     145.847 169.185 187.834  0.00  0.00    +0.034 HD
BRANCH  78  81
ATOM     81  C   UNL     1     146.256 170.848 189.064  0.00  0.00    +0.140 C 
ATOM     82  O   UNL     1     146.408 172.069 189.089  0.00  0.00    -0.297 OA
BRANCH  81  83
ATOM     83  C   UNL     1     146.723 169.946 190.215  0.00  0.00    +0.052 C 
ATOM     84  H   UNL     1     145.910 169.999 190.952  0.00  0.00    +0.041 HD
BRANCH  83  85
ATOM     85  C   UNL     1     146.842 168.477 189.813  0.00  0.00    -0.052 C 
ATOM     86  H   UNL     1     147.803 168.265 189.338  0.00  0.00    +0.024 HD
ATOM     87  H   UNL     1     146.061 168.207 189.096  0.00  0.00    +0.024 HD
ATOM     88  H   UNL     1     146.715 167.808 190.669  0.00  0.00    +0.024 HD
ENDBRANCH  83  85
BRANCH  83  89
ATOM     89  C   UNL     1     148.008 170.478 190.908  0.00  0.00    +0.118 C 
ATOM     90  H   UNL     1     148.594 171.088 190.207  0.00  0.00    +0.075 HD
BRANCH  89  91
ATOM     91  C   UNL     1     148.954 169.403 191.535  0.00  0.00    +0.014 C 
ATOM     92  H   UNL     1     148.937 168.533 190.875  0.00  0.00    +0.038 HD
BRANCH  91  93
ATOM     93  C   UNL     1     148.394 168.915 192.880  0.00  0.00    -0.056 C 
ATOM     94  H   UNL     1     147.298 168.888 192.872  0.00  0.00    +0.024 HD
ATOM     95  H   UNL     1     148.707 169.577 193.699  0.00  0.00    +0.024 HD
ATOM     96  H   UNL     1     148.753 167.910 193.120  0.00  0.00    +0.024 HD
ENDBRANCH  91  93
BRANCH  91  97
ATOM     97  C   UNL     1     150.364 169.887 191.755  0.00  0.00    -0.064 C 
ATOM     98  C   UNL     1     151.512 169.201 191.817  0.00  0.00    -0.010 C 
ATOM     99  H   UNL     1     150.454 170.972 191.831  0.00  0.00    +0.059 HD
ATOM    100  H   UNL     1     152.418 169.809 191.900  0.00  0.00    +0.078 HD
BRANCH  98 101
ATOM    101  N   UNL     1     151.822 167.853 191.782  0.00  0.00    -0.317 N 
BRANCH 101 102
ATOM    102  C   UNL     1     151.592 166.919 192.880  0.00  0.00    +0.002 C 
ATOM    103  H   UNL     1     151.032 166.040 192.538  0.00  0.00    +0.043 HD
ATOM    104  H   UNL     1     150.993 167.377 193.676  0.00  0.00    +0.043 HD
ATOM    105  H   UNL     1     152.541 166.605 193.322  0.00  0.00    +0.043 HD
ENDBRANCH 101 102
BRANCH 101 106
ATOM    106  C   UNL     1     152.446 167.260 190.610  0.00  0.00    +0.110 C 
ATOM    107  H   UNL     1     152.100 166.237 190.432  0.00  0.00    +0.077 HD
ATOM    108  H   UNL     1     153.536 167.233 190.706  0.00  0.00    +0.077 HD
BRANCH 106 109
ATOM    109  O   UNL     1     152.089 168.066 189.512  0.00  0.00    -0.377 OA
ATOM    110  H   UNL     1     151.132 167.901 189.462  0.00  0.00    +0.211 HD
ENDBRANCH 106 109
ENDBRANCH 101 106
ENDBRANCH  98 101
ENDBRANCH  91  97
ENDBRANCH  89  91
BRANCH  89 111
ATOM    111  O   UNL     1     147.582 171.323 192.021  0.00  0.00    -0.460 OA
BRANCH 111 112
ATOM    112  C   UNL     1     148.030 172.605 192.032  0.00  0.00    +0.304 C 
ATOM    113  O   UNL     1     148.703 173.133 191.159  0.00  0.00    -0.251 OA
BRANCH 112 114
ATOM    114  C   UNL     1     147.532 173.316 193.255  0.00  0.00    +0.033 C 
ATOM    115  H   UNL     1     148.371 173.715 193.837  0.00  0.00    +0.034 HD
ATOM    116  H   UNL     1     146.960 172.620 193.875  0.00  0.00    +0.034 HD
ATOM    117  H   UNL     1     146.905 174.159 192.953  0.00  0.00    +0.034 HD
ENDBRANCH 112 114
ENDBRANCH 111 112
ENDBRANCH  89 111
ENDBRANCH  83  89
ENDBRANCH  81  83
ENDBRANCH  78  81
ENDBRANCH  75  78
ENDBRANCH  69  75
ENDBRANCH  67  69
BRANCH  67 118
ATOM    118  O   UNL     1     141.772 167.933 190.371  0.00  0.00    -0.379 OA
BRANCH 118 119
ATOM    119  C   UNL     1     142.332 167.600 191.636  0.00  0.00    +0.037 C 
ATOM    120  H   UNL     1     142.586 166.536 191.626  0.00  0.00    +0.052 HD
ATOM    121  H   UNL     1     141.611 167.781 192.438  0.00  0.00    +0.052 HD
ATOM    122  H   UNL     1     143.246 168.162 191.825  0.00  0.00    +0.052 HD
ENDBRANCH 118 119
ENDBRANCH  67 118
ENDBRANCH  64  67
ENDBRANCH  13  64
BRANCH   8 123
ATOM    123  O   UNL     1     138.957 169.323 188.960  0.00  0.00    -0.391 OA
ATOM    124  H   UNL     1     138.579 168.484 189.277  0.00  0.00    +0.210 HD
ENDBRANCH   8 123
BRANCH  15 125
ATOM    125  O   UNL     1     141.149 174.102 190.132  0.00  0.00    -0.379 OA
BRANCH 125 126
ATOM    126  C   UNL     1     140.402 175.311 190.229  0.00  0.00    +0.037 C 
ATOM    127  H   UNL     1     139.450 175.230 189.694  0.00  0.00    +0.052 HD
ATOM    128  H   UNL     1     140.976 176.157 189.847  0.00  0.00    +0.052 HD
ATOM    129  H   UNL     1     140.186 175.491 191.283  0.00  0.00    +0.052 HD
ENDBRANCH 125 126
ENDBRANCH  15 125
TORSDOF 27
ENDMDL
MODEL 10
REMARK VINA RESULT:      -5.3      3.001      5.605
REMARK  Name = Ulapualide A_conf3
REMARK  27 active torsions:
REMARK  status: ('A' for Active; 'I' for Inactive)
REMARK    1  A    between atoms: C_1  and  C_2
REMARK    2  A    between atoms: C_9  and  O_63
REMARK    3  A    between atoms: C_14  and  C_38
REMARK    4  A    between atoms: C_15  and  C_37
REMARK    5  A    between atoms: C_16  and  O_35
REMARK    6  A    between atoms: O_35  and  C_36
REMARK    7  A    between atoms: C_38  and  C_39
REMARK    8  A    between atoms: C_39  and  C_40
REMARK    9  A    between atoms: C_39  and  O_61
REMARK   10  A    between atoms: C_40  and  C_41
REMARK   11  A    between atoms: C_40  and  C_42
REMARK   12  A    between atoms: C_42  and  C_43
REMARK   13  A    between atoms: C_43  and  C_44
REMARK   14  A    between atoms: C_44  and  C_46
REMARK   15  A    between atoms: C_46  and  C_47
REMARK   16  A    between atoms: C_46  and  C_48
REMARK   17  A    between atoms: C_48  and  C_49
REMARK   18  A    between atoms: C_48  and  O_57
REMARK   19  A    between atoms: C_49  and  C_50
REMARK   20  A    between atoms: C_49  and  C_51
REMARK   21  A    between atoms: C_52  and  N_53
REMARK   22  A    between atoms: N_53  and  C_54
REMARK   23  A    between atoms: N_53  and  C_55
REMARK   24  A    between atoms: C_55  and  O_56
REMARK   25  A    between atoms: O_57  and  C_58
REMARK   26  A    between atoms: C_58  and  C_60
REMARK   27  A    between atoms: O_61  and  C_62
REMARK                            x       y       z     vdW  Elec       q    Type
REMARK                         _______ _______ _______ _____ _____    ______ ____
ROOT
ATOM      1  C   UNL     1     154.204 165.715 189.626  0.00  0.00    +0.008 C 
ATOM      2  C   UNL     1     154.291 166.476 188.298  0.00  0.00    +0.014 C 
ATOM      3  C   UNL     1     153.092 166.250 187.391  0.00  0.00    +0.134 C 
ATOM      4  O   UNL     1     153.243 165.818 186.248  0.00  0.00    -0.297 OA
ATOM      5  C   UNL     1     151.734 166.655 187.941  0.00  0.00    +0.006 C 
ATOM      6  C   UNL     1     150.634 166.694 186.881  0.00  0.00    -0.044 C 
ATOM      7  C   UNL     1     149.368 167.337 187.449  0.00  0.00    -0.026 C 
ATOM      8  C   UNL     1     148.219 167.440 186.443  0.00  0.00    +0.065 C 
ATOM      9  C   UNL     1     147.689 166.112 185.912  0.00  0.00    +0.071 C 
ATOM     10  C   UNL     1     147.158 165.229 187.010  0.00  0.00    +0.310 C 
ATOM     11  O   UNL     1     147.852 164.500 187.705  0.00  0.00    -0.251 OA
ATOM     12  O   UNL     1     145.811 165.386 187.120  0.00  0.00    -0.461 OA
ATOM     13  C   UNL     1     145.104 164.527 188.042  0.00  0.00    +0.110 C 
ATOM     14  C   UNL     1     144.251 163.518 187.211  0.00  0.00    +0.020 C 
ATOM     15  C   UNL     1     145.088 162.523 186.339  0.00  0.00    +0.068 C 
ATOM     16  C   UNL     1     146.036 161.593 187.154  0.00  0.00    -0.008 C 
ATOM     17  C   UNL     1     145.466 160.203 187.306  0.00  0.00    -0.077 C 
ATOM     18  C   UNL     1     146.116 159.044 187.519  0.00  0.00    -0.003 C 
ATOM     19  C   UNL     1     147.517 158.887 187.700  0.00  0.00    +0.220 A 
ATOM     20  N   UNL     1     148.436 159.811 187.958  0.00  0.00    -0.205 NA
ATOM     21  C   UNL     1     149.625 159.128 188.061  0.00  0.00    +0.164 A 
ATOM     22  C   UNL     1     149.401 157.792 187.865  0.00  0.00    +0.125 A 
ATOM     23  O   UNL     1     148.076 157.618 187.642  0.00  0.00    -0.443 OA
ATOM     24  C   UNL     1     151.044 159.712 188.355  0.00  0.00    +0.250 A 
ATOM     25  N   UNL     1     151.321 160.983 188.595  0.00  0.00    -0.203 NA
ATOM     26  C   UNL     1     152.690 161.007 188.756  0.00  0.00    +0.164 A 
ATOM     27  C   UNL     1     153.194 159.740 188.622  0.00  0.00    +0.125 A 
ATOM     28  O   UNL     1     152.159 158.897 188.379  0.00  0.00    -0.442 OA
ATOM     29  C   UNL     1     153.591 162.252 189.041  0.00  0.00    +0.249 A 
ATOM     30  N   UNL     1     153.153 163.487 189.223  0.00  0.00    -0.212 NA
ATOM     31  C   UNL     1     154.292 164.238 189.413  0.00  0.00    +0.083 A 
ATOM     32  C   UNL     1     155.392 163.416 189.343  0.00  0.00    +0.116 A 
ATOM     33  O   UNL     1     154.964 162.149 189.120  0.00  0.00    -0.442 OA
ATOM     34  H   UNL     1     153.238 165.922 190.105  0.00  0.00    +0.037 HD
ATOM     35  H   UNL     1     155.194 166.189 187.746  0.00  0.00    +0.035 HD
ATOM     36  H   UNL     1     154.355 167.557 188.473  0.00  0.00    +0.035 HD
ATOM     37  H   UNL     1     151.853 167.652 188.379  0.00  0.00    +0.034 HD
ATOM     38  H   UNL     1     151.451 165.954 188.732  0.00  0.00    +0.034 HD
ATOM     39  H   UNL     1     150.433 165.673 186.537  0.00  0.00    +0.027 HD
ATOM     40  H   UNL     1     150.974 167.264 186.007  0.00  0.00    +0.027 HD
ATOM     41  H   UNL     1     149.608 168.351 187.795  0.00  0.00    +0.029 HD
ATOM     42  H   UNL     1     149.039 166.802 188.350  0.00  0.00    +0.029 HD
ATOM     43  H   UNL     1     148.561 168.041 185.591  0.00  0.00    +0.060 HD
ATOM     44  H   UNL     1     146.877 166.293 185.197  0.00  0.00    +0.040 HD
ATOM     45  H   UNL     1     148.456 165.555 185.365  0.00  0.00    +0.040 HD
ATOM     46  H   UNL     1     145.787 163.975 188.690  0.00  0.00    +0.074 HD
ATOM     47  H   UNL     1     143.669 164.118 186.496  0.00  0.00    +0.036 HD
ATOM     48  H   UNL     1     144.355 161.910 185.794  0.00  0.00    +0.060 HD
ATOM     49  H   UNL     1     147.017 161.548 186.671  0.00  0.00    +0.033 HD
ATOM     50  H   UNL     1     146.202 161.990 188.158  0.00  0.00    +0.033 HD
ATOM     51  H   UNL     1     144.383 160.123 187.230  0.00  0.00    +0.057 HD
ATOM     52  H   UNL     1     145.534 158.128 187.563  0.00  0.00    +0.067 HD
ATOM     53  H   UNL     1     150.018 156.906 187.855  0.00  0.00    +0.105 HD
ATOM     54  H   UNL     1     154.180 159.303 188.671  0.00  0.00    +0.105 HD
ATOM     55  H   UNL     1     156.461 163.558 189.415  0.00  0.00    +0.105 HD
ENDROOT
BRANCH   1  56
ATOM     56  C   UNL     1     155.277 166.225 190.593  0.00  0.00    -0.056 C 
ATOM     57  H   UNL     1     154.962 166.084 191.634  0.00  0.00    +0.024 HD
ATOM     58  H   UNL     1     155.480 167.292 190.448  0.00  0.00    +0.024 HD
ATOM     59  H   UNL     1     156.219 165.684 190.456  0.00  0.00    +0.024 HD
ENDBRANCH   1  56
BRANCH  14  60
ATOM     60  C   UNL     1     143.254 162.733 188.076  0.00  0.00    -0.057 C 
ATOM     61  H   UNL     1     143.012 161.763 187.631  0.00  0.00    +0.023 HD
ATOM     62  H   UNL     1     143.647 162.562 189.082  0.00  0.00    +0.023 HD
ATOM     63  H   UNL     1     142.323 163.294 188.207  0.00  0.00    +0.023 HD
ENDBRANCH  14  60
BRANCH  13  64
ATOM     64  C   UNL     1     144.255 165.472 188.916  0.00  0.00    +0.011 C 
ATOM     65  H   UNL     1     143.216 165.453 188.574  0.00  0.00    +0.033 HD
ATOM     66  H   UNL     1     144.643 166.493 188.803  0.00  0.00    +0.033 HD
BRANCH  64  67
ATOM     67  C   UNL     1     144.257 165.090 190.415  0.00  0.00    +0.064 C 
ATOM     68  H   UNL     1     144.707 164.096 190.546  0.00  0.00    +0.060 HD
BRANCH  67  69
ATOM     69  C   UNL     1     145.086 166.098 191.265  0.00  0.00    -0.017 C 
ATOM     70  H   UNL     1     144.385 166.514 192.003  0.00  0.00    +0.032 HD
BRANCH  69  71
ATOM     71  C   UNL     1     146.219 165.441 192.066  0.00  0.00    -0.060 C 
ATOM     72  H   UNL     1     145.900 164.468 192.458  0.00  0.00    +0.023 HD
ATOM     73  H   UNL     1     146.535 166.065 192.909  0.00  0.00    +0.023 HD
ATOM     74  H   UNL     1     147.095 165.256 191.438  0.00  0.00    +0.023 HD
ENDBRANCH  69  71
BRANCH  69  75
ATOM     75  C   UNL     1     145.604 167.303 190.436  0.00  0.00    -0.041 C 
ATOM     76  H   UNL     1     145.194 167.254 189.420  0.00  0.00    +0.027 HD
ATOM     77  H   UNL     1     145.177 168.215 190.875  0.00  0.00    +0.027 HD
BRANCH  75  78
ATOM     78  C   UNL     1     147.126 167.474 190.378  0.00  0.00    +0.007 C 
ATOM     79  H   UNL     1     147.537 167.026 189.473  0.00  0.00    +0.034 HD
ATOM     80  H   UNL     1     147.614 166.975 191.222  0.00  0.00    +0.034 HD
BRANCH  78  81
ATOM     81  C   UNL     1     147.522 168.940 190.465  0.00  0.00    +0.140 C 
ATOM     82  O   UNL     1     147.252 169.701 189.536  0.00  0.00    -0.297 OA
BRANCH  81  83
ATOM     83  C   UNL     1     148.133 169.446 191.780  0.00  0.00    +0.052 C 
ATOM     84  H   UNL     1     147.476 170.271 192.087  0.00  0.00    +0.041 HD
BRANCH  83  85
ATOM     85  C   UNL     1     148.074 168.411 192.903  0.00  0.00    -0.052 C 
ATOM     86  H   UNL     1     149.025 167.884 193.016  0.00  0.00    +0.024 HD
ATOM     87  H   UNL     1     147.309 167.656 192.694  0.00  0.00    +0.024 HD
ATOM     88  H   UNL     1     147.803 168.864 193.860  0.00  0.00    +0.024 HD
ENDBRANCH  83  85
BRANCH  83  89
ATOM     89  C   UNL     1     149.557 170.035 191.589  0.00  0.00    +0.118 C 
ATOM     90  H   UNL     1     149.736 170.265 190.530  0.00  0.00    +0.075 HD
BRANCH  89  91
ATOM     91  C   UNL     1     150.745 169.162 192.110  0.00  0.00    +0.014 C 
ATOM     92  H   UNL     1     150.580 168.996 193.176  0.00  0.00    +0.038 HD
BRANCH  91  93
ATOM     93  C   UNL     1     152.066 169.941 192.009  0.00  0.00    -0.056 C 
ATOM     94  H   UNL     1     152.369 170.082 190.965  0.00  0.00    +0.024 HD
ATOM     95  H   UNL     1     152.876 169.408 192.524  0.00  0.00    +0.024 HD
ATOM     96  H   UNL     1     151.981 170.929 192.471  0.00  0.00    +0.024 HD
ENDBRANCH  91  93
BRANCH  91  97
ATOM     97  C   UNL     1     150.907 167.855 191.378  0.00  0.00    -0.064 C 
ATOM     98  C   UNL     1     151.231 166.642 191.841  0.00  0.00    -0.010 C 
ATOM     99  H   UNL     1     150.679 167.912 190.312  0.00  0.00    +0.059 HD
ATOM    100  H   UNL     1     151.196 165.833 191.104  0.00  0.00    +0.078 HD
BRANCH  98 101
ATOM    101  N   UNL     1     151.597 166.161 193.086  0.00  0.00    -0.317 N 
BRANCH 101 102
ATOM    102  C   UNL     1     152.955 166.191 193.621  0.00  0.00    +0.002 C 
ATOM    103  H   UNL     1     152.955 166.007 194.702  0.00  0.00    +0.043 HD
ATOM    104  H   UNL     1     153.422 167.172 193.474  0.00  0.00    +0.043 HD
ATOM    105  H   UNL     1     153.582 165.449 193.120  0.00  0.00    +0.043 HD
ENDBRANCH 101 102
BRANCH 101 106
ATOM    106  C   UNL     1     150.618 165.546 193.967  0.00  0.00    +0.110 C 
ATOM    107  H   UNL     1     149.876 164.961 193.414  0.00  0.00    +0.077 HD
ATOM    108  H   UNL     1     150.080 166.296 194.556  0.00  0.00    +0.077 HD
BRANCH 106 109
ATOM    109  O   UNL     1     151.332 164.691 194.828  0.00  0.00    -0.377 OA
ATOM    110  H   UNL     1     150.625 164.095 195.128  0.00  0.00    +0.211 HD
ENDBRANCH 106 109
ENDBRANCH 101 106
ENDBRANCH  98 101
ENDBRANCH  91  97
ENDBRANCH  89  91
BRANCH  89 111
ATOM    111  O   UNL     1     149.617 171.278 192.354  0.00  0.00    -0.460 OA
BRANCH 111 112
ATOM    112  C   UNL     1     148.960 172.352 191.844  0.00  0.00    +0.304 C 
ATOM    113  O   UNL     1     149.050 172.764 190.697  0.00  0.00    -0.251 OA
BRANCH 112 114
ATOM    114  C   UNL     1     148.050 172.941 192.881  0.00  0.00    +0.033 C 
ATOM    115  H   UNL     1     148.439 172.752 193.887  0.00  0.00    +0.034 HD
ATOM    116  H   UNL     1     147.055 172.498 192.787  0.00  0.00    +0.034 HD
ATOM    117  H   UNL     1     147.998 174.025 192.742  0.00  0.00    +0.034 HD
ENDBRANCH 112 114
ENDBRANCH 111 112
ENDBRANCH  89 111
ENDBRANCH  83  89
ENDBRANCH  81  83
ENDBRANCH  78  81
ENDBRANCH  75  78
ENDBRANCH  69  75
ENDBRANCH  67  69
BRANCH  67 118
ATOM    118  O   UNL     1     142.898 165.094 190.873  0.00  0.00    -0.379 OA
BRANCH 118 119
ATOM    119  C   UNL     1     142.768 165.487 192.235  0.00  0.00    +0.037 C 
ATOM    120  H   UNL     1     141.805 165.122 192.604  0.00  0.00    +0.052 HD
ATOM    121  H   UNL     1     142.788 166.577 192.326  0.00  0.00    +0.052 HD
ATOM    122  H   UNL     1     143.553 165.049 192.850  0.00  0.00    +0.052 HD
ENDBRANCH 118 119
ENDBRANCH  67 118
ENDBRANCH  64  67
ENDBRANCH  13  64
BRANCH   8 123
ATOM    123  O   UNL     1     147.167 168.186 187.064  0.00  0.00    -0.391 OA
ATOM    124  H   UNL     1     147.327 169.130 186.889  0.00  0.00    +0.210 HD
ENDBRANCH   8 123
BRANCH  15 125
ATOM    125  O   UNL     1     145.794 163.272 185.335  0.00  0.00    -0.379 OA
BRANCH 125 126
ATOM    126  C   UNL     1     146.714 162.491 184.580  0.00  0.00    +0.037 C 
ATOM    127  H   UNL     1     147.748 162.789 184.788  0.00  0.00    +0.052 HD
ATOM    128  H   UNL     1     146.509 162.570 183.511  0.00  0.00    +0.052 HD
ATOM    129  H   UNL     1     146.595 161.448 184.876  0.00  0.00    +0.052 HD
ENDBRANCH 125 126
ENDBRANCH  15 125
TORSDOF 27
ENDMDL
