MODEL 1
REMARK VINA RESULT:      -6.0      0.000      0.000
REMARK  Name = Ulapualide A_conf1
REMARK  27 active torsions:
REMARK  status: ('A' for Active; 'I' for Inactive)
REMARK    1  A    between atoms: C_1  and  C_2
REMARK    2  A    between atoms: C_9  and  O_63
REMARK    3  A    between atoms: C_14  and  C_38
REMARK    4  A    between atoms: C_15  and  C_37
REMARK    5  A    between atoms: C_16  and  O_35
REMARK    6  A    between atoms: O_35  and  C_36
REMARK    7  A    between atoms: C_38  and  C_39
REMARK    8  A    between atoms: C_39  and  C_40
REMARK    9  A    between atoms: C_39  and  O_61
REMARK   10  A    between atoms: C_40  and  C_41
REMARK   11  A    between atoms: C_40  and  C_42
REMARK   12  A    between atoms: C_42  and  C_43
REMARK   13  A    between atoms: C_43  and  C_44
REMARK   14  A    between atoms: C_44  and  C_46
REMARK   15  A    between atoms: C_46  and  C_47
REMARK   16  A    between atoms: C_46  and  C_48
REMARK   17  A    between atoms: C_48  and  C_49
REMARK   18  A    between atoms: C_48  and  O_57
REMARK   19  A    between atoms: C_49  and  C_50
REMARK   20  A    between atoms: C_49  and  C_51
REMARK   21  A    between atoms: C_52  and  N_53
REMARK   22  A    between atoms: N_53  and  C_54
REMARK   23  A    between atoms: N_53  and  C_55
REMARK   24  A    between atoms: C_55  and  O_56
REMARK   25  A    between atoms: O_57  and  C_58
REMARK   26  A    between atoms: C_58  and  C_60
REMARK   27  A    between atoms: O_61  and  C_62
REMARK                            x       y       z     vdW  Elec       q    Type
REMARK                         _______ _______ _______ _____ _____    ______ ____
ROOT
ATOM      1  C   UNL     1     148.102 165.725 194.671  0.00  0.00    +0.008 C 
ATOM      2  C   UNL     1     146.922 165.981 193.710  0.00  0.00    +0.014 C 
ATOM      3  C   UNL     1     145.623 165.425 194.256  0.00  0.00    +0.134 C 
ATOM      4  O   UNL     1     145.590 164.371 194.896  0.00  0.00    -0.297 OA
ATOM      5  C   UNL     1     144.349 166.204 194.000  0.00  0.00    +0.006 C 
ATOM      6  C   UNL     1     144.021 166.417 192.527  0.00  0.00    -0.044 C 
ATOM      7  C   UNL     1     143.914 165.111 191.725  0.00  0.00    -0.026 C 
ATOM      8  C   UNL     1     143.283 165.372 190.350  0.00  0.00    +0.065 C 
ATOM      9  C   UNL     1     143.553 164.234 189.367  0.00  0.00    +0.071 C 
ATOM     10  C   UNL     1     143.355 164.764 187.973  0.00  0.00    +0.310 C 
ATOM     11  O   UNL     1     142.274 165.140 187.534  0.00  0.00    -0.251 OA
ATOM     12  O   UNL     1     144.545 164.845 187.313  0.00  0.00    -0.461 OA
ATOM     13  C   UNL     1     144.557 165.672 186.123  0.00  0.00    +0.110 C 
ATOM     14  C   UNL     1     145.813 165.314 185.283  0.00  0.00    +0.020 C 
ATOM     15  C   UNL     1     145.846 163.789 184.952  0.00  0.00    +0.068 C 
ATOM     16  C   UNL     1     147.181 163.318 184.320  0.00  0.00    -0.008 C 
ATOM     17  C   UNL     1     148.366 163.714 185.148  0.00  0.00    -0.077 C 
ATOM     18  C   UNL     1     149.429 164.403 184.697  0.00  0.00    -0.003 C 
ATOM     19  C   UNL     1     150.422 164.854 185.612  0.00  0.00    +0.220 A 
ATOM     20  N   UNL     1     150.257 165.000 186.920  0.00  0.00    -0.205 NA
ATOM     21  C   UNL     1     151.464 165.445 187.394  0.00  0.00    +0.164 A 
ATOM     22  C   UNL     1     152.347 165.576 186.358  0.00  0.00    +0.125 A 
ATOM     23  O   UNL     1     151.693 165.233 185.211  0.00  0.00    -0.443 OA
ATOM     24  C   UNL     1     151.758 165.754 188.893  0.00  0.00    +0.250 A 
ATOM     25  N   UNL     1     150.826 165.709 189.829  0.00  0.00    -0.203 NA
ATOM     26  C   UNL     1     151.497 166.007 190.987  0.00  0.00    +0.164 A 
ATOM     27  C   UNL     1     152.823 166.236 190.712  0.00  0.00    +0.125 A 
ATOM     28  O   UNL     1     153.003 166.103 189.368  0.00  0.00    -0.442 OA
ATOM     29  C   UNL     1     150.855 166.060 192.405  0.00  0.00    +0.249 A 
ATOM     30  N   UNL     1     149.569 165.855 192.635  0.00  0.00    -0.212 NA
ATOM     31  C   UNL     1     149.429 165.963 194.000  0.00  0.00    +0.083 A 
ATOM     32  C   UNL     1     150.662 166.232 194.550  0.00  0.00    +0.116 A 
ATOM     33  O   UNL     1     151.577 166.307 193.546  0.00  0.00    -0.442 OA
ATOM     34  H   UNL     1     148.095 164.671 194.977  0.00  0.00    +0.037 HD
ATOM     35  H   UNL     1     146.814 167.055 193.527  0.00  0.00    +0.035 HD
ATOM     36  H   UNL     1     147.079 165.495 192.740  0.00  0.00    +0.035 HD
ATOM     37  H   UNL     1     143.522 165.677 194.489  0.00  0.00    +0.034 HD
ATOM     38  H   UNL     1     144.448 167.172 194.504  0.00  0.00    +0.034 HD
ATOM     39  H   UNL     1     143.075 166.969 192.468  0.00  0.00    +0.027 HD
ATOM     40  H   UNL     1     144.783 167.055 192.063  0.00  0.00    +0.027 HD
ATOM     41  H   UNL     1     143.305 164.389 192.282  0.00  0.00    +0.029 HD
ATOM     42  H   UNL     1     144.917 164.688 191.608  0.00  0.00    +0.029 HD
ATOM     43  H   UNL     1     143.649 166.325 189.959  0.00  0.00    +0.060 HD
ATOM     44  H   UNL     1     142.871 163.388 189.512  0.00  0.00    +0.040 HD
ATOM     45  H   UNL     1     144.578 163.862 189.460  0.00  0.00    +0.040 HD
ATOM     46  H   UNL     1     143.668 165.438 185.525  0.00  0.00    +0.074 HD
ATOM     47  H   UNL     1     146.693 165.530 185.899  0.00  0.00    +0.036 HD
ATOM     48  H   UNL     1     145.707 163.230 185.888  0.00  0.00    +0.060 HD
ATOM     49  H   UNL     1     147.264 163.687 183.291  0.00  0.00    +0.033 HD
ATOM     50  H   UNL     1     147.173 162.225 184.231  0.00  0.00    +0.033 HD
ATOM     51  H   UNL     1     148.303 163.464 186.210  0.00  0.00    +0.057 HD
ATOM     52  H   UNL     1     149.557 164.635 183.649  0.00  0.00    +0.067 HD
ATOM     53  H   UNL     1     153.368 165.906 186.256  0.00  0.00    +0.105 HD
ATOM     54  H   UNL     1     153.692 166.493 191.299  0.00  0.00    +0.105 HD
ATOM     55  H   UNL     1     151.035 166.375 195.553  0.00  0.00    +0.105 HD
ENDROOT
BRANCH   1  56
ATOM     56  C   UNL     1     147.944 166.583 195.934  0.00  0.00    -0.056 C 
ATOM     57  H   UNL     1     148.918 166.869 196.346  0.00  0.00    +0.024 HD
ATOM     58  H   UNL     1     147.414 166.038 196.720  0.00  0.00    +0.024 HD
ATOM     59  H   UNL     1     147.387 167.504 195.724  0.00  0.00    +0.024 HD
ENDBRANCH   1  56
BRANCH  14  60
ATOM     60  C   UNL     1     145.894 166.175 184.014  0.00  0.00    -0.057 C 
ATOM     61  H   UNL     1     144.931 166.640 183.785  0.00  0.00    +0.023 HD
ATOM     62  H   UNL     1     146.211 165.593 183.145  0.00  0.00    +0.023 HD
ATOM     63  H   UNL     1     146.631 166.975 184.133  0.00  0.00    +0.023 HD
ENDBRANCH  14  60
BRANCH  13  64
ATOM     64  C   UNL     1     144.493 167.162 186.546  0.00  0.00    +0.011 C 
ATOM     65  H   UNL     1     143.433 167.403 186.674  0.00  0.00    +0.033 HD
ATOM     66  H   UNL     1     144.851 167.790 185.723  0.00  0.00    +0.033 HD
BRANCH  64  67
ATOM     67  C   UNL     1     145.234 167.543 187.852  0.00  0.00    +0.064 C 
ATOM     68  H   UNL     1     144.971 166.814 188.628  0.00  0.00    +0.060 HD
BRANCH  67  69
ATOM     69  C   UNL     1     146.784 167.494 187.652  0.00  0.00    -0.017 C 
ATOM     70  H   UNL     1     146.989 166.733 186.886  0.00  0.00    +0.032 HD
BRANCH  69  71
ATOM     71  C   UNL     1     147.353 168.827 187.148  0.00  0.00    -0.060 C 
ATOM     72  H   UNL     1     146.885 169.680 187.651  0.00  0.00    +0.023 HD
ATOM     73  H   UNL     1     147.215 168.951 186.070  0.00  0.00    +0.023 HD
ATOM     74  H   UNL     1     148.430 168.882 187.312  0.00  0.00    +0.023 HD
ENDBRANCH  69  71
BRANCH  69  75
ATOM     75  C   UNL     1     147.485 167.047 188.960  0.00  0.00    -0.041 C 
ATOM     76  H   UNL     1     148.266 166.324 188.693  0.00  0.00    +0.027 HD
ATOM     77  H   UNL     1     146.780 166.518 189.613  0.00  0.00    +0.027 HD
BRANCH  75  78
ATOM     78  C   UNL     1     148.171 168.183 189.727  0.00  0.00    +0.007 C 
ATOM     79  H   UNL     1     149.123 167.818 190.125  0.00  0.00    +0.034 HD
ATOM     80  H   UNL     1     148.394 169.012 189.046  0.00  0.00    +0.034 HD
BRANCH  78  81
ATOM     81  C   UNL     1     147.390 168.713 190.925  0.00  0.00    +0.140 C 
ATOM     82  O   UNL     1     146.242 168.341 191.180  0.00  0.00    -0.297 OA
BRANCH  81  83
ATOM     83  C   UNL     1     148.110 169.736 191.794  0.00  0.00    +0.052 C 
ATOM     84  H   UNL     1     147.778 169.600 192.829  0.00  0.00    +0.041 HD
BRANCH  83  85
ATOM     85  C   UNL     1     149.612 169.437 191.750  0.00  0.00    -0.052 C 
ATOM     86  H   UNL     1     150.199 170.316 192.026  0.00  0.00    +0.024 HD
ATOM     87  H   UNL     1     149.882 168.632 192.440  0.00  0.00    +0.024 HD
ATOM     88  H   UNL     1     149.917 169.121 190.748  0.00  0.00    +0.024 HD
ENDBRANCH  83  85
BRANCH  83  89
ATOM     89  C   UNL     1     147.818 171.191 191.357  0.00  0.00    +0.118 C 
ATOM     90  H   UNL     1     148.591 171.508 190.649  0.00  0.00    +0.075 HD
BRANCH  89  91
ATOM     91  C   UNL     1     146.439 171.382 190.660  0.00  0.00    +0.014 C 
ATOM     92  H   UNL     1     145.952 170.408 190.673  0.00  0.00    +0.038 HD
BRANCH  91  93
ATOM     93  C   UNL     1     146.607 171.778 189.189  0.00  0.00    -0.056 C 
ATOM     94  H   UNL     1     145.844 171.322 188.546  0.00  0.00    +0.024 HD
ATOM     95  H   UNL     1     147.588 171.466 188.814  0.00  0.00    +0.024 HD
ATOM     96  H   UNL     1     146.540 172.866 189.075  0.00  0.00    +0.024 HD
ENDBRANCH  91  93
BRANCH  91  97
ATOM     97  C   UNL     1     145.572 172.407 191.359  0.00  0.00    -0.064 C 
ATOM     98  C   UNL     1     144.237 172.528 191.372  0.00  0.00    -0.010 C 
ATOM     99  H   UNL     1     146.127 173.103 191.992  0.00  0.00    +0.059 HD
ATOM    100  H   UNL     1     143.830 173.276 192.053  0.00  0.00    +0.078 HD
BRANCH  98 101
ATOM    101  N   UNL     1     143.218 171.849 190.722  0.00  0.00    -0.317 N 
BRANCH 101 102
ATOM    102  C   UNL     1     142.869 172.192 189.339  0.00  0.00    +0.002 C 
ATOM    103  H   UNL     1     143.763 172.210 188.700  0.00  0.00    +0.043 HD
ATOM    104  H   UNL     1     142.410 173.187 189.287  0.00  0.00    +0.043 HD
ATOM    105  H   UNL     1     142.171 171.456 188.928  0.00  0.00    +0.043 HD
ENDBRANCH 101 102
BRANCH 101 106
ATOM    106  C   UNL     1     142.646 170.586 191.170  0.00  0.00    +0.110 C 
ATOM    107  H   UNL     1     142.343 170.581 192.214  0.00  0.00    +0.077 HD
ATOM    108  H   UNL     1     141.778 170.302 190.567  0.00  0.00    +0.077 HD
BRANCH 106 109
ATOM    109  O   UNL     1     143.652 169.603 191.025  0.00  0.00    -0.377 OA
ATOM    110  H   UNL     1     144.462 170.139 191.093  0.00  0.00    +0.211 HD
ENDBRANCH 106 109
ENDBRANCH 101 106
ENDBRANCH  98 101
ENDBRANCH  91  97
ENDBRANCH  89  91
BRANCH  89 111
ATOM    111  O   UNL     1     147.850 172.012 192.555  0.00  0.00    -0.460 OA
BRANCH 111 112
ATOM    112  C   UNL     1     148.870 172.903 192.681  0.00  0.00    +0.304 C 
ATOM    113  O   UNL     1     149.018 173.926 192.028  0.00  0.00    -0.251 OA
BRANCH 112 114
ATOM    114  C   UNL     1     149.812 172.444 193.750  0.00  0.00    +0.033 C 
ATOM    115  H   UNL     1     149.267 171.866 194.501  0.00  0.00    +0.034 HD
ATOM    116  H   UNL     1     150.303 173.307 194.207  0.00  0.00    +0.034 HD
ATOM    117  H   UNL     1     150.580 171.802 193.305  0.00  0.00    +0.034 HD
ENDBRANCH 112 114
ENDBRANCH 111 112
ENDBRANCH  89 111
ENDBRANCH  83  89
ENDBRANCH  81  83
ENDBRANCH  78  81
ENDBRANCH  75  78
ENDBRANCH  69  75
ENDBRANCH  67  69
BRANCH  67 118
ATOM    118  O   UNL     1     144.864 168.865 188.253  0.00  0.00    -0.379 OA
BRANCH 118 119
ATOM    119  C   UNL     1     143.754 169.391 187.530  0.00  0.00    +0.037 C 
ATOM    120  H   UNL     1     143.881 170.463 187.361  0.00  0.00    +0.052 HD
ATOM    121  H   UNL     1     143.621 168.875 186.575  0.00  0.00    +0.052 HD
ATOM    122  H   UNL     1     142.854 169.241 188.134  0.00  0.00    +0.052 HD
ENDBRANCH 118 119
ENDBRANCH  67 118
ENDBRANCH  64  67
ENDBRANCH  13  64
BRANCH   8 123
ATOM    123  O   UNL     1     141.872 165.502 190.544  0.00  0.00    -0.391 OA
ATOM    124  H   UNL     1     141.673 166.461 190.549  0.00  0.00    +0.210 HD
ENDBRANCH   8 123
BRANCH  15 125
ATOM    125  O   UNL     1     144.765 163.502 184.053  0.00  0.00    -0.379 OA
BRANCH 125 126
ATOM    126  C   UNL     1     143.978 162.391 184.470  0.00  0.00    +0.037 C 
ATOM    127  H   UNL     1     144.462 161.876 185.307  0.00  0.00    +0.052 HD
ATOM    128  H   UNL     1     143.009 162.767 184.808  0.00  0.00    +0.052 HD
ATOM    129  H   UNL     1     143.811 161.695 183.642  0.00  0.00    +0.052 HD
ENDBRANCH 125 126
ENDBRANCH  15 125
TORSDOF 27
ENDMDL
MODEL 2
REMARK VINA RESULT:      -5.9      1.806      3.288
REMARK  Name = Ulapualide A_conf1
REMARK  27 active torsions:
REMARK  status: ('A' for Active; 'I' for Inactive)
REMARK    1  A    between atoms: C_1  and  C_2
REMARK    2  A    between atoms: C_9  and  O_63
REMARK    3  A    between atoms: C_14  and  C_38
REMARK    4  A    between atoms: C_15  and  C_37
REMARK    5  A    between atoms: C_16  and  O_35
REMARK    6  A    between atoms: O_35  and  C_36
REMARK    7  A    between atoms: C_38  and  C_39
REMARK    8  A    between atoms: C_39  and  C_40
REMARK    9  A    between atoms: C_39  and  O_61
REMARK   10  A    between atoms: C_40  and  C_41
REMARK   11  A    between atoms: C_40  and  C_42
REMARK   12  A    between atoms: C_42  and  C_43
REMARK   13  A    between atoms: C_43  and  C_44
REMARK   14  A    between atoms: C_44  and  C_46
REMARK   15  A    between atoms: C_46  and  C_47
REMARK   16  A    between atoms: C_46  and  C_48
REMARK   17  A    between atoms: C_48  and  C_49
REMARK   18  A    between atoms: C_48  and  O_57
REMARK   19  A    between atoms: C_49  and  C_50
REMARK   20  A    between atoms: C_49  and  C_51
REMARK   21  A    between atoms: C_52  and  N_53
REMARK   22  A    between atoms: N_53  and  C_54
REMARK   23  A    between atoms: N_53  and  C_55
REMARK   24  A    between atoms: C_55  and  O_56
REMARK   25  A    between atoms: O_57  and  C_58
REMARK   26  A    between atoms: C_58  and  C_60
REMARK   27  A    between atoms: O_61  and  C_62
REMARK                            x       y       z     vdW  Elec       q    Type
REMARK                         _______ _______ _______ _____ _____    ______ ____
ROOT
ATOM      1  C   UNL     1     147.982 165.496 195.293  0.00  0.00    +0.008 C 
ATOM      2  C   UNL     1     147.004 165.979 194.203  0.00  0.00    +0.014 C 
ATOM      3  C   UNL     1     145.599 165.465 194.441  0.00  0.00    +0.134 C 
ATOM      4  O   UNL     1     145.392 164.341 194.904  0.00  0.00    -0.297 OA
ATOM      5  C   UNL     1     144.438 166.378 194.101  0.00  0.00    +0.006 C 
ATOM      6  C   UNL     1     144.384 166.816 192.642  0.00  0.00    -0.044 C 
ATOM      7  C   UNL     1     144.337 165.646 191.648  0.00  0.00    -0.026 C 
ATOM      8  C   UNL     1     143.972 166.145 190.243  0.00  0.00    +0.065 C 
ATOM      9  C   UNL     1     144.338 165.133 189.159  0.00  0.00    +0.071 C 
ATOM     10  C   UNL     1     144.417 165.863 187.845  0.00  0.00    +0.310 C 
ATOM     11  O   UNL     1     143.453 166.385 187.297  0.00  0.00    -0.251 OA
ATOM     12  O   UNL     1     145.706 165.932 187.407  0.00  0.00    -0.461 OA
ATOM     13  C   UNL     1     145.974 166.910 186.372  0.00  0.00    +0.110 C 
ATOM     14  C   UNL     1     147.332 166.564 185.704  0.00  0.00    +0.020 C 
ATOM     15  C   UNL     1     147.330 165.102 185.159  0.00  0.00    +0.068 C 
ATOM     16  C   UNL     1     148.723 164.610 184.689  0.00  0.00    -0.008 C 
ATOM     17  C   UNL     1     149.769 164.788 185.749  0.00  0.00    -0.077 C 
ATOM     18  C   UNL     1     150.933 165.440 185.585  0.00  0.00    -0.003 C 
ATOM     19  C   UNL     1     151.779 165.675 186.706  0.00  0.00    +0.220 A 
ATOM     20  N   UNL     1     151.398 165.655 187.976  0.00  0.00    -0.205 NA
ATOM     21  C   UNL     1     152.530 165.928 188.701  0.00  0.00    +0.164 A 
ATOM     22  C   UNL     1     153.585 166.123 187.853  0.00  0.00    +0.125 A 
ATOM     23  O   UNL     1     153.120 165.997 186.577  0.00  0.00    -0.443 OA
ATOM     24  C   UNL     1     152.578 166.003 190.256  0.00  0.00    +0.250 A 
ATOM     25  N   UNL     1     151.497 165.910 191.012  0.00  0.00    -0.203 NA
ATOM     26  C   UNL     1     151.974 165.989 192.294  0.00  0.00    +0.164 A 
ATOM     27  C   UNL     1     153.339 166.140 192.276  0.00  0.00    +0.125 A 
ATOM     28  O   UNL     1     153.741 166.177 190.975  0.00  0.00    -0.442 OA
ATOM     29  C   UNL     1     151.101 165.902 193.581  0.00  0.00    +0.249 A 
ATOM     30  N   UNL     1     149.785 165.777 193.565  0.00  0.00    -0.212 NA
ATOM     31  C   UNL     1     149.417 165.709 194.891  0.00  0.00    +0.083 A 
ATOM     32  C   UNL     1     150.550 165.795 195.667  0.00  0.00    +0.116 A 
ATOM     33  O   UNL     1     151.628 165.929 194.848  0.00  0.00    -0.442 OA
ATOM     34  H   UNL     1     147.859 164.414 195.434  0.00  0.00    +0.037 HD
ATOM     35  H   UNL     1     146.994 167.073 194.166  0.00  0.00    +0.035 HD
ATOM     36  H   UNL     1     147.297 165.619 193.209  0.00  0.00    +0.035 HD
ATOM     37  H   UNL     1     143.508 165.860 194.364  0.00  0.00    +0.034 HD
ATOM     38  H   UNL     1     144.507 167.255 194.752  0.00  0.00    +0.034 HD
ATOM     39  H   UNL     1     143.496 167.450 192.513  0.00  0.00    +0.027 HD
ATOM     40  H   UNL     1     145.251 167.445 192.409  0.00  0.00    +0.027 HD
ATOM     41  H   UNL     1     143.599 164.909 191.985  0.00  0.00    +0.029 HD
ATOM     42  H   UNL     1     145.318 165.160 191.634  0.00  0.00    +0.029 HD
ATOM     43  H   UNL     1     144.457 167.108 190.063  0.00  0.00    +0.060 HD
ATOM     44  H   UNL     1     143.592 164.336 189.063  0.00  0.00    +0.040 HD
ATOM     45  H   UNL     1     145.307 164.666 189.360  0.00  0.00    +0.040 HD
ATOM     46  H   UNL     1     145.189 166.835 185.609  0.00  0.00    +0.074 HD
ATOM     47  H   UNL     1     148.103 166.619 186.479  0.00  0.00    +0.036 HD
ATOM     48  H   UNL     1     146.997 164.435 185.966  0.00  0.00    +0.060 HD
ATOM     49  H   UNL     1     149.005 165.108 183.754  0.00  0.00    +0.033 HD
ATOM     50  H   UNL     1     148.664 163.544 184.438  0.00  0.00    +0.033 HD
ATOM     51  H   UNL     1     149.508 164.402 186.737  0.00  0.00    +0.057 HD
ATOM     52  H   UNL     1     151.254 165.800 184.617  0.00  0.00    +0.067 HD
ATOM     53  H   UNL     1     154.626 166.377 187.969  0.00  0.00    +0.105 HD
ATOM     54  H   UNL     1     154.107 166.240 193.028  0.00  0.00    +0.105 HD
ATOM     55  H   UNL     1     150.752 165.769 196.728  0.00  0.00    +0.105 HD
ENDROOT
BRANCH   1  56
ATOM     56  C   UNL     1     147.660 166.183 196.628  0.00  0.00    -0.056 C 
ATOM     57  H   UNL     1     146.805 165.709 197.123  0.00  0.00    +0.024 HD
ATOM     58  H   UNL     1     147.400 167.234 196.480  0.00  0.00    +0.024 HD
ATOM     59  H   UNL     1     148.512 166.136 197.316  0.00  0.00    +0.024 HD
ENDBRANCH   1  56
BRANCH  14  60
ATOM     60  C   UNL     1     147.684 167.581 184.607  0.00  0.00    -0.057 C 
ATOM     61  H   UNL     1     147.436 167.197 183.613  0.00  0.00    +0.023 HD
ATOM     62  H   UNL     1     148.744 167.846 184.620  0.00  0.00    +0.023 HD
ATOM     63  H   UNL     1     147.132 168.515 184.750  0.00  0.00    +0.023 HD
ENDBRANCH  14  60
BRANCH  13  64
ATOM     64  C   UNL     1     145.927 168.328 186.996  0.00  0.00    +0.011 C 
ATOM     65  H   UNL     1     146.949 168.718 186.958  0.00  0.00    +0.033 HD
ATOM     66  H   UNL     1     145.670 168.251 188.058  0.00  0.00    +0.033 HD
BRANCH  64  67
ATOM     67  C   UNL     1     144.993 169.356 186.307  0.00  0.00    +0.064 C 
ATOM     68  H   UNL     1     144.105 169.496 186.936  0.00  0.00    +0.060 HD
BRANCH  67  69
ATOM     69  C   UNL     1     145.700 170.742 186.157  0.00  0.00    -0.017 C 
ATOM     70  H   UNL     1     146.531 170.764 186.876  0.00  0.00    +0.032 HD
BRANCH  69  71
ATOM     71  C   UNL     1     146.288 170.952 184.756  0.00  0.00    -0.060 C 
ATOM     72  H   UNL     1     145.602 171.509 184.110  0.00  0.00    +0.023 HD
ATOM     73  H   UNL     1     146.526 170.005 184.265  0.00  0.00    +0.023 HD
ATOM     74  H   UNL     1     147.232 171.499 184.804  0.00  0.00    +0.023 HD
ENDBRANCH  69  71
BRANCH  69  75
ATOM     75  C   UNL     1     144.725 171.889 186.531  0.00  0.00    -0.041 C 
ATOM     76  H   UNL     1     143.703 171.538 186.335  0.00  0.00    +0.027 HD
ATOM     77  H   UNL     1     144.887 172.758 185.882  0.00  0.00    +0.027 HD
BRANCH  75  78
ATOM     78  C   UNL     1     144.778 172.307 188.004  0.00  0.00    +0.007 C 
ATOM     79  H   UNL     1     145.750 172.020 188.420  0.00  0.00    +0.034 HD
ATOM     80  H   UNL     1     144.693 173.396 188.086  0.00  0.00    +0.034 HD
BRANCH  78  81
ATOM     81  C   UNL     1     143.729 171.652 188.897  0.00  0.00    +0.140 C 
ATOM     82  O   UNL     1     142.559 171.502 188.536  0.00  0.00    -0.297 OA
BRANCH  81  83
ATOM     83  C   UNL     1     144.209 171.191 190.267  0.00  0.00    +0.052 C 
ATOM     84  H   UNL     1     143.922 171.950 191.003  0.00  0.00    +0.041 HD
BRANCH  83  85
ATOM     85  C   UNL     1     143.472 169.897 190.628  0.00  0.00    -0.052 C 
ATOM     86  H   UNL     1     143.596 169.654 191.686  0.00  0.00    +0.024 HD
ATOM     87  H   UNL     1     142.400 169.978 190.432  0.00  0.00    +0.024 HD
ATOM     88  H   UNL     1     143.848 169.057 190.036  0.00  0.00    +0.024 HD
ENDBRANCH  83  85
BRANCH  83  89
ATOM     89  C   UNL     1     145.742 170.992 190.317  0.00  0.00    +0.118 C 
ATOM     90  H   UNL     1     146.158 171.199 189.324  0.00  0.00    +0.075 HD
BRANCH  89  91
ATOM     91  C   UNL     1     146.472 171.920 191.332  0.00  0.00    +0.014 C 
ATOM     92  H   UNL     1     146.714 171.301 192.194  0.00  0.00    +0.038 HD
BRANCH  91  93
ATOM     93  C   UNL     1     145.549 173.038 191.829  0.00  0.00    -0.056 C 
ATOM     94  H   UNL     1     144.499 172.723 191.868  0.00  0.00    +0.024 HD
ATOM     95  H   UNL     1     145.610 173.912 191.171  0.00  0.00    +0.024 HD
ATOM     96  H   UNL     1     145.844 173.360 192.834  0.00  0.00    +0.024 HD
ENDBRANCH  91  93
BRANCH  91  97
ATOM     97  C   UNL     1     147.733 172.530 190.758  0.00  0.00    -0.064 C 
ATOM     98  C   UNL     1     148.994 172.463 191.209  0.00  0.00    -0.010 C 
ATOM     99  H   UNL     1     147.587 173.042 189.804  0.00  0.00    +0.059 HD
ATOM    100  H   UNL     1     149.760 172.881 190.555  0.00  0.00    +0.078 HD
BRANCH  98 101
ATOM    101  N   UNL     1     149.565 171.913 192.346  0.00  0.00    -0.317 N 
BRANCH 101 102
ATOM    102  C   UNL     1     149.312 172.510 193.662  0.00  0.00    +0.002 C 
ATOM    103  H   UNL     1     149.590 171.817 194.468  0.00  0.00    +0.043 HD
ATOM    104  H   UNL     1     148.248 172.745 193.785  0.00  0.00    +0.043 HD
ATOM    105  H   UNL     1     149.896 173.428 193.783  0.00  0.00    +0.043 HD
ENDBRANCH 101 102
BRANCH 101 106
ATOM    106  C   UNL     1     150.158 170.583 192.415  0.00  0.00    +0.110 C 
ATOM    107  H   UNL     1     151.088 170.540 192.976  0.00  0.00    +0.077 HD
ATOM    108  H   UNL     1     149.467 169.857 192.853  0.00  0.00    +0.077 HD
BRANCH 106 109
ATOM    109  O   UNL     1     150.456 170.196 191.088  0.00  0.00    -0.377 OA
ATOM    110  H   UNL     1     149.610 169.808 190.801  0.00  0.00    +0.211 HD
ENDBRANCH 106 109
ENDBRANCH 101 106
ENDBRANCH  98 101
ENDBRANCH  91  97
ENDBRANCH  89  91
BRANCH  89 111
ATOM    111  O   UNL     1     145.982 169.610 190.696  0.00  0.00    -0.460 OA
BRANCH 111 112
ATOM    112  C   UNL     1     147.207 169.085 190.423  0.00  0.00    +0.304 C 
ATOM    113  O   UNL     1     147.922 169.381 189.478  0.00  0.00    -0.251 OA
BRANCH 112 114
ATOM    114  C   UNL     1     147.562 168.067 191.462  0.00  0.00    +0.033 C 
ATOM    115  H   UNL     1     147.363 168.469 192.458  0.00  0.00    +0.034 HD
ATOM    116  H   UNL     1     148.613 167.785 191.360  0.00  0.00    +0.034 HD
ATOM    117  H   UNL     1     146.946 167.173 191.318  0.00  0.00    +0.034 HD
ENDBRANCH 112 114
ENDBRANCH 111 112
ENDBRANCH  89 111
ENDBRANCH  83  89
ENDBRANCH  81  83
ENDBRANCH  78  81
ENDBRANCH  75  78
ENDBRANCH  69  75
ENDBRANCH  67  69
BRANCH  67 118
ATOM    118  O   UNL     1     144.626 168.884 185.009  0.00  0.00    -0.379 OA
BRANCH 118 119
ATOM    119  C   UNL     1     143.219 168.880 184.779  0.00  0.00    +0.037 C 
ATOM    120  H   UNL     1     142.999 168.572 183.754  0.00  0.00    +0.052 HD
ATOM    121  H   UNL     1     142.704 168.223 185.486  0.00  0.00    +0.052 HD
ATOM    122  H   UNL     1     142.849 169.900 184.921  0.00  0.00    +0.052 HD
ENDBRANCH 118 119
ENDBRANCH  67 118
ENDBRANCH  64  67
ENDBRANCH  13  64
BRANCH   8 123
ATOM    123  O   UNL     1     142.559 166.366 190.222  0.00  0.00    -0.391 OA
ATOM    124  H   UNL     1     142.154 165.671 190.780  0.00  0.00    +0.210 HD
ENDBRANCH   8 123
BRANCH  15 125
ATOM    125  O   UNL     1     146.406 165.033 184.063  0.00  0.00    -0.379 OA
BRANCH 125 126
ATOM    126  C   UNL     1     146.907 164.280 182.963  0.00  0.00    +0.037 C 
ATOM    127  H   UNL     1     147.817 164.745 182.567  0.00  0.00    +0.052 HD
ATOM    128  H   UNL     1     147.157 163.278 183.321  0.00  0.00    +0.052 HD
ATOM    129  H   UNL     1     146.154 164.189 182.174  0.00  0.00    +0.052 HD
ENDBRANCH 125 126
ENDBRANCH  15 125
TORSDOF 27
ENDMDL
MODEL 3
REMARK VINA RESULT:      -5.8      1.619      3.022
REMARK  Name = Ulapualide A_conf1
REMARK  27 active torsions:
REMARK  status: ('A' for Active; 'I' for Inactive)
REMARK    1  A    between atoms: C_1  and  C_2
REMARK    2  A    between atoms: C_9  and  O_63
REMARK    3  A    between atoms: C_14  and  C_38
REMARK    4  A    between atoms: C_15  and  C_37
REMARK    5  A    between atoms: C_16  and  O_35
REMARK    6  A    between atoms: O_35  and  C_36
REMARK    7  A    between atoms: C_38  and  C_39
REMARK    8  A    between atoms: C_39  and  C_40
REMARK    9  A    between atoms: C_39  and  O_61
REMARK   10  A    between atoms: C_40  and  C_41
REMARK   11  A    between atoms: C_40  and  C_42
REMARK   12  A    between atoms: C_42  and  C_43
REMARK   13  A    between atoms: C_43  and  C_44
REMARK   14  A    between atoms: C_44  and  C_46
REMARK   15  A    between atoms: C_46  and  C_47
REMARK   16  A    between atoms: C_46  and  C_48
REMARK   17  A    between atoms: C_48  and  C_49
REMARK   18  A    between atoms: C_48  and  O_57
REMARK   19  A    between atoms: C_49  and  C_50
REMARK   20  A    between atoms: C_49  and  C_51
REMARK   21  A    between atoms: C_52  and  N_53
REMARK   22  A    between atoms: N_53  and  C_54
REMARK   23  A    between atoms: N_53  and  C_55
REMARK   24  A    between atoms: C_55  and  O_56
REMARK   25  A    between atoms: O_57  and  C_58
REMARK   26  A    between atoms: C_58  and  C_60
REMARK   27  A    between atoms: O_61  and  C_62
REMARK                            x       y       z     vdW  Elec       q    Type
REMARK                         _______ _______ _______ _____ _____    ______ ____
ROOT
ATOM      1  C   UNL     1     148.219 165.608 195.031  0.00  0.00    +0.008 C 
ATOM      2  C   UNL     1     147.148 165.932 193.968  0.00  0.00    +0.014 C 
ATOM      3  C   UNL     1     145.777 165.438 194.383  0.00  0.00    +0.134 C 
ATOM      4  O   UNL     1     145.632 164.382 195.002  0.00  0.00    -0.297 OA
ATOM      5  C   UNL     1     144.574 166.284 194.021  0.00  0.00    +0.006 C 
ATOM      6  C   UNL     1     144.397 166.527 192.526  0.00  0.00    -0.044 C 
ATOM      7  C   UNL     1     144.299 165.236 191.700  0.00  0.00    -0.026 C 
ATOM      8  C   UNL     1     143.815 165.542 190.275  0.00  0.00    +0.065 C 
ATOM      9  C   UNL     1     144.117 164.401 189.306  0.00  0.00    +0.071 C 
ATOM     10  C   UNL     1     144.078 164.953 187.907  0.00  0.00    +0.310 C 
ATOM     11  O   UNL     1     143.063 165.388 187.374  0.00  0.00    -0.251 OA
ATOM     12  O   UNL     1     145.327 164.979 187.362  0.00  0.00    -0.461 OA
ATOM     13  C   UNL     1     145.492 165.816 186.191  0.00  0.00    +0.110 C 
ATOM     14  C   UNL     1     146.802 165.401 185.466  0.00  0.00    +0.020 C 
ATOM     15  C   UNL     1     146.789 163.881 185.118  0.00  0.00    +0.068 C 
ATOM     16  C   UNL     1     148.152 163.348 184.606  0.00  0.00    -0.008 C 
ATOM     17  C   UNL     1     149.273 163.675 185.547  0.00  0.00    -0.077 C 
ATOM     18  C   UNL     1     150.407 164.313 185.207  0.00  0.00    -0.003 C 
ATOM     19  C   UNL     1     151.331 164.703 186.217  0.00  0.00    +0.220 A 
ATOM     20  N   UNL     1     151.051 164.845 187.505  0.00  0.00    -0.205 NA
ATOM     21  C   UNL     1     152.229 165.224 188.095  0.00  0.00    +0.164 A 
ATOM     22  C   UNL     1     153.211 165.319 187.148  0.00  0.00    +0.125 A 
ATOM     23  O   UNL     1     152.651 165.021 185.941  0.00  0.00    -0.443 OA
ATOM     24  C   UNL     1     152.397 165.503 189.619  0.00  0.00    +0.250 A 
ATOM     25  N   UNL     1     151.380 165.498 190.464  0.00  0.00    -0.203 NA
ATOM     26  C   UNL     1     151.954 165.750 191.683  0.00  0.00    +0.164 A 
ATOM     27  C   UNL     1     153.310 165.913 191.536  0.00  0.00    +0.125 A 
ATOM     28  O   UNL     1     153.608 165.784 190.214  0.00  0.00    -0.442 OA
ATOM     29  C   UNL     1     151.185 165.822 193.037  0.00  0.00    +0.249 A 
ATOM     30  N   UNL     1     149.875 165.681 193.142  0.00  0.00    -0.212 NA
ATOM     31  C   UNL     1     149.613 165.784 194.490  0.00  0.00    +0.083 A 
ATOM     32  C   UNL     1     150.801 165.984 195.156  0.00  0.00    +0.116 A 
ATOM     33  O   UNL     1     151.809 166.022 194.243  0.00  0.00    -0.442 OA
ATOM     34  H   UNL     1     148.130 164.553 195.320  0.00  0.00    +0.037 HD
ATOM     35  H   UNL     1     147.111 167.012 193.791  0.00  0.00    +0.035 HD
ATOM     36  H   UNL     1     147.371 165.448 193.010  0.00  0.00    +0.035 HD
ATOM     37  H   UNL     1     143.679 165.795 194.423  0.00  0.00    +0.034 HD
ATOM     38  H   UNL     1     144.674 167.241 194.545  0.00  0.00    +0.034 HD
ATOM     39  H   UNL     1     143.488 167.128 192.387  0.00  0.00    +0.027 HD
ATOM     40  H   UNL     1     145.229 167.130 192.145  0.00  0.00    +0.027 HD
ATOM     41  H   UNL     1     143.606 164.541 192.188  0.00  0.00    +0.029 HD
ATOM     42  H   UNL     1     145.286 164.764 191.671  0.00  0.00    +0.029 HD
ATOM     43  H   UNL     1     144.263 166.479 189.933  0.00  0.00    +0.060 HD
ATOM     44  H   UNL     1     143.384 163.589 189.375  0.00  0.00    +0.040 HD
ATOM     45  H   UNL     1     145.109 163.976 189.489  0.00  0.00    +0.040 HD
ATOM     46  H   UNL     1     144.652 165.633 185.509  0.00  0.00    +0.074 HD
ATOM     47  H   UNL     1     147.630 165.567 186.164  0.00  0.00    +0.036 HD
ATOM     48  H   UNL     1     146.535 163.321 186.029  0.00  0.00    +0.060 HD
ATOM     49  H   UNL     1     148.350 163.722 183.595  0.00  0.00    +0.033 HD
ATOM     50  H   UNL     1     148.098 162.257 184.501  0.00  0.00    +0.033 HD
ATOM     51  H   UNL     1     149.098 163.419 186.594  0.00  0.00    +0.057 HD
ATOM     52  H   UNL     1     150.643 164.547 184.178  0.00  0.00    +0.067 HD
ATOM     53  H   UNL     1     154.252 165.598 187.146  0.00  0.00    +0.105 HD
ATOM     54  H   UNL     1     154.131 166.120 192.205  0.00  0.00    +0.105 HD
ATOM     55  H   UNL     1     151.085 166.099 196.192  0.00  0.00    +0.105 HD
ENDROOT
BRANCH   1  56
ATOM     56  C   UNL     1     147.986 166.461 196.286  0.00  0.00    -0.056 C 
ATOM     57  H   UNL     1     146.966 166.860 196.313  0.00  0.00    +0.024 HD
ATOM     58  H   UNL     1     148.664 167.317 196.316  0.00  0.00    +0.024 HD
ATOM     59  H   UNL     1     148.138 165.874 197.200  0.00  0.00    +0.024 HD
ENDBRANCH   1  56
BRANCH  14  60
ATOM     60  C   UNL     1     147.044 166.269 184.222  0.00  0.00    -0.057 C 
ATOM     61  H   UNL     1     148.048 166.114 183.817  0.00  0.00    +0.023 HD
ATOM     62  H   UNL     1     146.921 167.334 184.436  0.00  0.00    +0.023 HD
ATOM     63  H   UNL     1     146.325 166.029 183.434  0.00  0.00    +0.023 HD
ENDBRANCH  14  60
BRANCH  13  64
ATOM     64  C   UNL     1     145.463 167.303 186.626  0.00  0.00    +0.011 C 
ATOM     65  H   UNL     1     146.464 167.702 186.436  0.00  0.00    +0.033 HD
ATOM     66  H   UNL     1     145.313 167.363 187.710  0.00  0.00    +0.033 HD
BRANCH  64  67
ATOM     67  C   UNL     1     144.436 168.214 185.908  0.00  0.00    +0.064 C 
ATOM     68  H   UNL     1     143.799 167.588 185.271  0.00  0.00    +0.060 HD
BRANCH  67  69
ATOM     69  C   UNL     1     143.515 168.943 186.940  0.00  0.00    -0.017 C 
ATOM     70  H   UNL     1     143.704 170.021 186.840  0.00  0.00    +0.032 HD
BRANCH  69  71
ATOM     71  C   UNL     1     142.024 168.703 186.667  0.00  0.00    -0.060 C 
ATOM     72  H   UNL     1     141.828 168.561 185.600  0.00  0.00    +0.023 HD
ATOM     73  H   UNL     1     141.404 169.531 187.020  0.00  0.00    +0.023 HD
ATOM     74  H   UNL     1     141.664 167.822 187.202  0.00  0.00    +0.023 HD
ENDBRANCH  69  71
BRANCH  69  75
ATOM     75  C   UNL     1     143.891 168.531 188.386  0.00  0.00    -0.041 C 
ATOM     76  H   UNL     1     144.974 168.674 188.505  0.00  0.00    +0.027 HD
ATOM     77  H   UNL     1     143.698 167.464 188.545  0.00  0.00    +0.027 HD
BRANCH  75  78
ATOM     78  C   UNL     1     143.209 169.364 189.477  0.00  0.00    +0.007 C 
ATOM     79  H   UNL     1     142.359 169.896 189.038  0.00  0.00    +0.034 HD
ATOM     80  H   UNL     1     142.816 168.704 190.259  0.00  0.00    +0.034 HD
BRANCH  78  81
ATOM     81  C   UNL     1     144.090 170.432 190.116  0.00  0.00    +0.140 C 
ATOM     82  O   UNL     1     143.812 170.954 191.198  0.00  0.00    -0.297 OA
BRANCH  81  83
ATOM     83  C   UNL     1     145.342 170.820 189.339  0.00  0.00    +0.052 C 
ATOM     84  H   UNL     1     145.576 170.009 188.641  0.00  0.00    +0.041 HD
BRANCH  83  85
ATOM     85  C   UNL     1     145.028 172.068 188.508  0.00  0.00    -0.052 C 
ATOM     86  H   UNL     1     145.425 172.969 188.982  0.00  0.00    +0.024 HD
ATOM     87  H   UNL     1     145.466 172.004 187.508  0.00  0.00    +0.024 HD
ATOM     88  H   UNL     1     143.948 172.191 188.383  0.00  0.00    +0.024 HD
ENDBRANCH  83  85
BRANCH  83  89
ATOM     89  C   UNL     1     146.559 171.058 190.265  0.00  0.00    +0.118 C 
ATOM     90  H   UNL     1     146.224 171.013 191.307  0.00  0.00    +0.075 HD
BRANCH  89  91
ATOM     91  C   UNL     1     147.701 170.014 190.096  0.00  0.00    +0.014 C 
ATOM     92  H   UNL     1     148.602 170.580 189.863  0.00  0.00    +0.038 HD
BRANCH  91  93
ATOM     93  C   UNL     1     147.437 169.085 188.906  0.00  0.00    -0.056 C 
ATOM     94  H   UNL     1     147.432 169.626 187.950  0.00  0.00    +0.024 HD
ATOM     95  H   UNL     1     146.466 168.588 189.011  0.00  0.00    +0.024 HD
ATOM     96  H   UNL     1     148.204 168.305 188.849  0.00  0.00    +0.024 HD
ENDBRANCH  91  93
BRANCH  91  97
ATOM     97  C   UNL     1     147.917 169.182 191.342  0.00  0.00    -0.064 C 
ATOM     98  C   UNL     1     148.938 169.197 192.210  0.00  0.00    -0.010 C 
ATOM     99  H   UNL     1     147.081 168.525 191.590  0.00  0.00    +0.059 HD
ATOM    100  H   UNL     1     148.813 168.590 193.108  0.00  0.00    +0.078 HD
BRANCH  98 101
ATOM    101  N   UNL     1     150.143 169.880 192.243  0.00  0.00    -0.317 N 
BRANCH 101 102
ATOM    102  C   UNL     1     150.256 171.142 192.983  0.00  0.00    +0.002 C 
ATOM    103  H   UNL     1     149.263 171.549 193.220  0.00  0.00    +0.043 HD
ATOM    104  H   UNL     1     150.785 171.897 192.389  0.00  0.00    +0.043 HD
ATOM    105  H   UNL     1     150.795 170.987 193.923  0.00  0.00    +0.043 HD
ENDBRANCH 101 102
BRANCH 101 106
ATOM    106  C   UNL     1     151.431 169.310 191.869  0.00  0.00    +0.110 C 
ATOM    107  H   UNL     1     152.237 170.036 191.801  0.00  0.00    +0.077 HD
ATOM    108  H   UNL     1     151.742 168.527 192.567  0.00  0.00    +0.077 HD
BRANCH 106 109
ATOM    109  O   UNL     1     151.273 168.745 190.582  0.00  0.00    -0.377 OA
ATOM    110  H   UNL     1     152.058 168.173 190.519  0.00  0.00    +0.211 HD
ENDBRANCH 106 109
ENDBRANCH 101 106
ENDBRANCH  98 101
ENDBRANCH  91  97
ENDBRANCH  89  91
BRANCH  89 111
ATOM    111  O   UNL     1     147.084 172.376 189.950  0.00  0.00    -0.460 OA
BRANCH 111 112
ATOM    112  C   UNL     1     147.932 172.947 190.847  0.00  0.00    +0.304 C 
ATOM    113  O   UNL     1     149.075 173.317 190.624  0.00  0.00    -0.251 OA
BRANCH 112 114
ATOM    114  C   UNL     1     147.257 173.055 192.180  0.00  0.00    +0.033 C 
ATOM    115  H   UNL     1     148.000 172.978 192.978  0.00  0.00    +0.034 HD
ATOM    116  H   UNL     1     146.499 172.274 192.276  0.00  0.00    +0.034 HD
ATOM    117  H   UNL     1     146.763 174.030 192.257  0.00  0.00    +0.034 HD
ENDBRANCH 112 114
ENDBRANCH 111 112
ENDBRANCH  89 111
ENDBRANCH  83  89
ENDBRANCH  81  83
ENDBRANCH  78  81
ENDBRANCH  75  78
ENDBRANCH  69  75
ENDBRANCH  67  69
BRANCH  67 118
ATOM    118  O   UNL     1     145.121 169.197 185.128  0.00  0.00    -0.379 OA
BRANCH 118 119
ATOM    119  C   UNL     1     144.480 169.492 183.889  0.00  0.00    +0.037 C 
ATOM    120  H   UNL     1     143.820 168.673 183.595  0.00  0.00    +0.052 HD
ATOM    121  H   UNL     1     143.914 170.427 183.948  0.00  0.00    +0.052 HD
ATOM    122  H   UNL     1     145.255 169.604 183.125  0.00  0.00    +0.052 HD
ENDBRANCH 118 119
ENDBRANCH  67 118
ENDBRANCH  64  67
ENDBRANCH  13  64
BRANCH   8 123
ATOM    123  O   UNL     1     142.400 165.742 190.339  0.00  0.00    -0.391 OA
ATOM    124  H   UNL     1     142.070 165.205 191.088  0.00  0.00    +0.210 HD
ENDBRANCH   8 123
BRANCH  15 125
ATOM    125  O   UNL     1     145.784 163.658 184.118  0.00  0.00    -0.379 OA
BRANCH 125 126
ATOM    126  C   UNL     1     146.206 162.751 183.103  0.00  0.00    +0.037 C 
ATOM    127  H   UNL     1     146.756 163.285 182.321  0.00  0.00    +0.052 HD
ATOM    128  H   UNL     1     146.874 162.016 183.558  0.00  0.00    +0.052 HD
ATOM    129  H   UNL     1     145.351 162.222 182.670  0.00  0.00    +0.052 HD
ENDBRANCH 125 126
ENDBRANCH  15 125
TORSDOF 27
ENDMDL
MODEL 4
REMARK VINA RESULT:      -5.8      3.597      6.252
REMARK  Name = Ulapualide A_conf1
REMARK  27 active torsions:
REMARK  status: ('A' for Active; 'I' for Inactive)
REMARK    1  A    between atoms: C_1  and  C_2
REMARK    2  A    between atoms: C_9  and  O_63
REMARK    3  A    between atoms: C_14  and  C_38
REMARK    4  A    between atoms: C_15  and  C_37
REMARK    5  A    between atoms: C_16  and  O_35
REMARK    6  A    between atoms: O_35  and  C_36
REMARK    7  A    between atoms: C_38  and  C_39
REMARK    8  A    between atoms: C_39  and  C_40
REMARK    9  A    between atoms: C_39  and  O_61
REMARK   10  A    between atoms: C_40  and  C_41
REMARK   11  A    between atoms: C_40  and  C_42
REMARK   12  A    between atoms: C_42  and  C_43
REMARK   13  A    between atoms: C_43  and  C_44
REMARK   14  A    between atoms: C_44  and  C_46
REMARK   15  A    between atoms: C_46  and  C_47
REMARK   16  A    between atoms: C_46  and  C_48
REMARK   17  A    between atoms: C_48  and  C_49
REMARK   18  A    between atoms: C_48  and  O_57
REMARK   19  A    between atoms: C_49  and  C_50
REMARK   20  A    between atoms: C_49  and  C_51
REMARK   21  A    between atoms: C_52  and  N_53
REMARK   22  A    between atoms: N_53  and  C_54
REMARK   23  A    between atoms: N_53  and  C_55
REMARK   24  A    between atoms: C_55  and  O_56
REMARK   25  A    between atoms: O_57  and  C_58
REMARK   26  A    between atoms: C_58  and  C_60
REMARK   27  A    between atoms: O_61  and  C_62
REMARK                            x       y       z     vdW  Elec       q    Type
REMARK                         _______ _______ _______ _____ _____    ______ ____
ROOT
ATOM      1  C   UNL     1     147.245 157.133 188.380  0.00  0.00    +0.008 C 
ATOM      2  C   UNL     1     146.250 158.189 188.904  0.00  0.00    +0.014 C 
ATOM      3  C   UNL     1     144.814 157.796 188.623  0.00  0.00    +0.134 C 
ATOM      4  O   UNL     1     144.496 157.213 187.584  0.00  0.00    -0.297 OA
ATOM      5  C   UNL     1     143.765 158.136 189.662  0.00  0.00    +0.006 C 
ATOM      6  C   UNL     1     143.643 159.623 189.977  0.00  0.00    -0.044 C 
ATOM      7  C   UNL     1     143.349 160.492 188.745  0.00  0.00    -0.026 C 
ATOM      8  C   UNL     1     142.933 161.907 189.169  0.00  0.00    +0.065 C 
ATOM      9  C   UNL     1     143.059 162.912 188.025  0.00  0.00    +0.071 C 
ATOM     10  C   UNL     1     143.122 164.293 188.621  0.00  0.00    +0.310 C 
ATOM     11  O   UNL     1     142.194 164.815 189.229  0.00  0.00    -0.251 OA
ATOM     12  O   UNL     1     144.365 164.830 188.464  0.00  0.00    -0.461 OA
ATOM     13  C   UNL     1     144.672 165.973 189.300  0.00  0.00    +0.110 C 
ATOM     14  C   UNL     1     145.906 166.705 188.705  0.00  0.00    +0.020 C 
ATOM     15  C   UNL     1     145.654 167.102 187.217  0.00  0.00    +0.068 C 
ATOM     16  C   UNL     1     146.919 167.625 186.490  0.00  0.00    -0.008 C 
ATOM     17  C   UNL     1     148.069 166.670 186.604  0.00  0.00    -0.077 C 
ATOM     18  C   UNL     1     149.293 166.984 187.063  0.00  0.00    -0.003 C 
ATOM     19  C   UNL     1     150.258 165.957 187.268  0.00  0.00    +0.220 A 
ATOM     20  N   UNL     1     149.992 164.667 187.412  0.00  0.00    -0.205 NA
ATOM     21  C   UNL     1     151.210 164.059 187.579  0.00  0.00    +0.164 A 
ATOM     22  C   UNL     1     152.203 164.998 187.546  0.00  0.00    +0.125 A 
ATOM     23  O   UNL     1     151.615 166.217 187.379  0.00  0.00    -0.443 OA
ATOM     24  C   UNL     1     151.405 162.526 187.780  0.00  0.00    +0.250 A 
ATOM     25  N   UNL     1     150.392 161.686 187.910  0.00  0.00    -0.203 NA
ATOM     26  C   UNL     1     150.987 160.457 188.028  0.00  0.00    +0.164 A 
ATOM     27  C   UNL     1     152.353 160.592 187.978  0.00  0.00    +0.125 A 
ATOM     28  O   UNL     1     152.639 161.917 187.844  0.00  0.00    -0.442 OA
ATOM     29  C   UNL     1     150.227 159.105 188.180  0.00  0.00    +0.249 A 
ATOM     30  N   UNL     1     148.910 159.010 188.247  0.00  0.00    -0.212 NA
ATOM     31  C   UNL     1     148.655 157.661 188.347  0.00  0.00    +0.083 A 
ATOM     32  C   UNL     1     149.853 156.984 188.334  0.00  0.00    +0.116 A 
ATOM     33  O   UNL     1     150.863 157.890 188.239  0.00  0.00    -0.442 OA
ATOM     34  H   UNL     1     146.987 156.878 187.344  0.00  0.00    +0.037 HD
ATOM     35  H   UNL     1     146.388 158.331 189.982  0.00  0.00    +0.035 HD
ATOM     36  H   UNL     1     146.402 159.162 188.422  0.00  0.00    +0.035 HD
ATOM     37  H   UNL     1     142.800 157.754 189.309  0.00  0.00    +0.034 HD
ATOM     38  H   UNL     1     144.011 157.580 190.573  0.00  0.00    +0.034 HD
ATOM     39  H   UNL     1     142.844 159.746 190.719  0.00  0.00    +0.027 HD
ATOM     40  H   UNL     1     144.565 159.981 190.451  0.00  0.00    +0.027 HD
ATOM     41  H   UNL     1     142.549 160.030 188.154  0.00  0.00    +0.029 HD
ATOM     42  H   UNL     1     144.248 160.532 188.122  0.00  0.00    +0.029 HD
ATOM     43  H   UNL     1     143.528 162.216 190.032  0.00  0.00    +0.060 HD
ATOM     44  H   UNL     1     142.205 162.873 187.340  0.00  0.00    +0.040 HD
ATOM     45  H   UNL     1     143.969 162.739 187.442  0.00  0.00    +0.040 HD
ATOM     46  H   UNL     1     143.821 166.665 189.275  0.00  0.00    +0.074 HD
ATOM     47  H   UNL     1     146.743 165.999 188.713  0.00  0.00    +0.036 HD
ATOM     48  H   UNL     1     145.305 166.212 186.677  0.00  0.00    +0.060 HD
ATOM     49  H   UNL     1     147.184 168.623 186.859  0.00  0.00    +0.033 HD
ATOM     50  H   UNL     1     146.693 167.766 185.425  0.00  0.00    +0.033 HD
ATOM     51  H   UNL     1     147.845 165.632 186.346  0.00  0.00    +0.057 HD
ATOM     52  H   UNL     1     149.574 168.003 187.289  0.00  0.00    +0.067 HD
ATOM     53  H   UNL     1     153.275 164.986 187.655  0.00  0.00    +0.105 HD
ATOM     54  H   UNL     1     153.190 159.913 188.029  0.00  0.00    +0.105 HD
ATOM     55  H   UNL     1     150.142 155.943 188.369  0.00  0.00    +0.105 HD
ENDROOT
BRANCH   1  56
ATOM     56  C   UNL     1     147.139 155.851 189.218  0.00  0.00    -0.056 C 
ATOM     57  H   UNL     1     147.935 155.142 188.965  0.00  0.00    +0.024 HD
ATOM     58  H   UNL     1     146.189 155.340 189.043  0.00  0.00    +0.024 HD
ATOM     59  H   UNL     1     147.216 156.069 190.290  0.00  0.00    +0.024 HD
ENDBRANCH   1  56
BRANCH  14  60
ATOM     60  C   UNL     1     146.296 167.919 189.561  0.00  0.00    -0.057 C 
ATOM     61  H   UNL     1     145.423 168.357 190.053  0.00  0.00    +0.023 HD
ATOM     62  H   UNL     1     146.785 168.697 188.970  0.00  0.00    +0.023 HD
ATOM     63  H   UNL     1     147.009 167.633 190.340  0.00  0.00    +0.023 HD
ENDBRANCH  14  60
BRANCH  13  64
ATOM     64  C   UNL     1     144.877 165.489 190.759  0.00  0.00    +0.011 C 
ATOM     65  H   UNL     1     145.930 165.663 190.999  0.00  0.00    +0.033 HD
ATOM     66  H   UNL     1     144.728 164.405 190.807  0.00  0.00    +0.033 HD
BRANCH  64  67
ATOM     67  C   UNL     1     144.014 166.181 191.844  0.00  0.00    +0.064 C 
ATOM     68  H   UNL     1     143.204 165.500 192.133  0.00  0.00    +0.060 HD
BRANCH  67  69
ATOM     69  C   UNL     1     144.862 166.489 193.121  0.00  0.00    -0.017 C 
ATOM     70  H   UNL     1     144.529 167.464 193.505  0.00  0.00    +0.032 HD
BRANCH  69  71
ATOM     71  C   UNL     1     144.647 165.452 194.232  0.00  0.00    -0.060 C 
ATOM     72  H   UNL     1     145.523 164.807 194.354  0.00  0.00    +0.023 HD
ATOM     73  H   UNL     1     143.780 164.816 194.037  0.00  0.00    +0.023 HD
ATOM     74  H   UNL     1     144.443 165.937 195.188  0.00  0.00    +0.023 HD
ENDBRANCH  69  71
BRANCH  69  75
ATOM     75  C   UNL     1     146.363 166.614 192.756  0.00  0.00    -0.041 C 
ATOM     76  H   UNL     1     146.480 167.494 192.111  0.00  0.00    +0.027 HD
ATOM     77  H   UNL     1     146.689 165.749 192.166  0.00  0.00    +0.027 HD
BRANCH  75  78
ATOM     78  C   UNL     1     147.290 166.817 193.960  0.00  0.00    +0.007 C 
ATOM     79  H   UNL     1     147.719 167.824 193.913  0.00  0.00    +0.034 HD
ATOM     80  H   UNL     1     146.714 166.748 194.890  0.00  0.00    +0.034 HD
BRANCH  78  81
ATOM     81  C   UNL     1     148.474 165.858 194.030  0.00  0.00    +0.140 C 
ATOM     82  O   UNL     1     148.333 164.634 193.980  0.00  0.00    -0.297 OA
BRANCH  81  83
ATOM     83  C   UNL     1     149.848 166.500 194.164  0.00  0.00    +0.052 C 
ATOM     84  H   UNL     1     149.741 167.417 194.754  0.00  0.00    +0.041 HD
BRANCH  83  85
ATOM     85  C   UNL     1     150.753 165.548 194.952  0.00  0.00    -0.052 C 
ATOM     86  H   UNL     1     151.646 166.061 195.317  0.00  0.00    +0.024 HD
ATOM     87  H   UNL     1     150.236 165.131 195.821  0.00  0.00    +0.024 HD
ATOM     88  H   UNL     1     151.070 164.706 194.329  0.00  0.00    +0.024 HD
ENDBRANCH  83  85
BRANCH  83  89
ATOM     89  C   UNL     1     150.470 166.852 192.792  0.00  0.00    +0.118 C 
ATOM     90  H   UNL     1     150.244 166.046 192.085  0.00  0.00    +0.075 HD
BRANCH  89  91
ATOM     91  C   UNL     1     149.940 168.178 192.173  0.00  0.00    +0.014 C 
ATOM     92  H   UNL     1     149.043 168.440 192.732  0.00  0.00    +0.038 HD
BRANCH  91  93
ATOM     93  C   UNL     1     149.516 167.983 190.713  0.00  0.00    -0.056 C 
ATOM     94  H   UNL     1     148.469 168.265 190.543  0.00  0.00    +0.024 HD
ATOM     95  H   UNL     1     149.630 166.935 190.414  0.00  0.00    +0.024 HD
ATOM     96  H   UNL     1     150.142 168.587 190.047  0.00  0.00    +0.024 HD
ENDBRANCH  91  93
BRANCH  91  97
ATOM     97  C   UNL     1     150.951 169.302 192.254  0.00  0.00    -0.064 C 
ATOM     98  C   UNL     1     150.750 170.625 192.339  0.00  0.00    -0.010 C 
ATOM     99  H   UNL     1     151.988 168.965 192.317  0.00  0.00    +0.059 HD
ATOM    100  H   UNL     1     151.638 171.234 192.515  0.00  0.00    +0.078 HD
BRANCH  98 101
ATOM    101  N   UNL     1     149.612 171.414 192.302  0.00  0.00    -0.317 N 
BRANCH 101 102
ATOM    102  C   UNL     1     149.304 172.318 193.416  0.00  0.00    +0.002 C 
ATOM    103  H   UNL     1     149.042 171.752 194.321  0.00  0.00    +0.043 HD
ATOM    104  H   UNL     1     148.449 172.960 193.173  0.00  0.00    +0.043 HD
ATOM    105  H   UNL     1     150.169 172.948 193.647  0.00  0.00    +0.043 HD
ENDBRANCH 101 102
BRANCH 101 106
ATOM    106  C   UNL     1     148.825 171.679 191.105  0.00  0.00    +0.110 C 
ATOM    107  H   UNL     1     149.167 171.146 190.221  0.00  0.00    +0.077 HD
ATOM    108  H   UNL     1     147.769 171.437 191.256  0.00  0.00    +0.077 HD
BRANCH 106 109
ATOM    109  O   UNL     1     148.948 173.060 190.829  0.00  0.00    -0.377 OA
ATOM    110  H   UNL     1     148.778 173.453 191.704  0.00  0.00    +0.211 HD
ENDBRANCH 106 109
ENDBRANCH 101 106
ENDBRANCH  98 101
ENDBRANCH  91  97
ENDBRANCH  89  91
BRANCH  89 111
ATOM    111  O   UNL     1     151.905 166.973 192.991  0.00  0.00    -0.460 OA
BRANCH 111 112
ATOM    112  C   UNL     1     152.718 166.292 192.140  0.00  0.00    +0.304 C 
ATOM    113  O   UNL     1     153.929 166.425 192.040  0.00  0.00    -0.251 OA
BRANCH 112 114
ATOM    114  C   UNL     1     151.905 165.338 191.320  0.00  0.00    +0.033 C 
ATOM    115  H   UNL     1     152.227 165.380 190.276  0.00  0.00    +0.034 HD
ATOM    116  H   UNL     1     150.844 165.584 191.410  0.00  0.00    +0.034 HD
ATOM    117  H   UNL     1     152.059 164.320 191.691  0.00  0.00    +0.034 HD
ENDBRANCH 112 114
ENDBRANCH 111 112
ENDBRANCH  89 111
ENDBRANCH  83  89
ENDBRANCH  81  83
ENDBRANCH  78  81
ENDBRANCH  75  78
ENDBRANCH  69  75
ENDBRANCH  67  69
BRANCH  67 118
ATOM    118  O   UNL     1     143.487 167.409 191.335  0.00  0.00    -0.379 OA
BRANCH 118 119
ATOM    119  C   UNL     1     142.546 168.032 192.206  0.00  0.00    +0.037 C 
ATOM    120  H   UNL     1     143.060 168.641 192.953  0.00  0.00    +0.052 HD
ATOM    121  H   UNL     1     141.834 168.646 191.647  0.00  0.00    +0.052 HD
ATOM    122  H   UNL     1     141.990 167.244 192.725  0.00  0.00    +0.052 HD
ENDBRANCH 118 119
ENDBRANCH  67 118
ENDBRANCH  64  67
ENDBRANCH  13  64
BRANCH   8 123
ATOM    123  O   UNL     1     141.568 161.844 189.591  0.00  0.00    -0.391 OA
ATOM    124  H   UNL     1     141.188 161.030 189.201  0.00  0.00    +0.210 HD
ENDBRANCH   8 123
BRANCH  15 125
ATOM    125  O   UNL     1     144.636 168.114 187.190  0.00  0.00    -0.379 OA
BRANCH 125 126
ATOM    126  C   UNL     1     144.925 169.164 186.271  0.00  0.00    +0.037 C 
ATOM    127  H   UNL     1     145.809 169.723 186.598  0.00  0.00    +0.052 HD
ATOM    128  H   UNL     1     145.137 168.717 185.297  0.00  0.00    +0.052 HD
ATOM    129  H   UNL     1     144.069 169.839 186.165  0.00  0.00    +0.052 HD
ENDBRANCH 125 126
ENDBRANCH  15 125
TORSDOF 27
ENDMDL
MODEL 5
REMARK VINA RESULT:      -5.7      2.033      6.365
REMARK  Name = Ulapualide A_conf1
REMARK  27 active torsions:
REMARK  status: ('A' for Active; 'I' for Inactive)
REMARK    1  A    between atoms: C_1  and  C_2
REMARK    2  A    between atoms: C_9  and  O_63
REMARK    3  A    between atoms: C_14  and  C_38
REMARK    4  A    between atoms: C_15  and  C_37
REMARK    5  A    between atoms: C_16  and  O_35
REMARK    6  A    between atoms: O_35  and  C_36
REMARK    7  A    between atoms: C_38  and  C_39
REMARK    8  A    between atoms: C_39  and  C_40
REMARK    9  A    between atoms: C_39  and  O_61
REMARK   10  A    between atoms: C_40  and  C_41
REMARK   11  A    between atoms: C_40  and  C_42
REMARK   12  A    between atoms: C_42  and  C_43
REMARK   13  A    between atoms: C_43  and  C_44
REMARK   14  A    between atoms: C_44  and  C_46
REMARK   15  A    between atoms: C_46  and  C_47
REMARK   16  A    between atoms: C_46  and  C_48
REMARK   17  A    between atoms: C_48  and  C_49
REMARK   18  A    between atoms: C_48  and  O_57
REMARK   19  A    between atoms: C_49  and  C_50
REMARK   20  A    between atoms: C_49  and  C_51
REMARK   21  A    between atoms: C_52  and  N_53
REMARK   22  A    between atoms: N_53  and  C_54
REMARK   23  A    between atoms: N_53  and  C_55
REMARK   24  A    between atoms: C_55  and  O_56
REMARK   25  A    between atoms: O_57  and  C_58
REMARK   26  A    between atoms: C_58  and  C_60
REMARK   27  A    between atoms: O_61  and  C_62
REMARK                            x       y       z     vdW  Elec       q    Type
REMARK                         _______ _______ _______ _____ _____    ______ ____
ROOT
ATOM      1  C   UNL     1     151.901 166.455 191.569  0.00  0.00    +0.008 C 
ATOM      2  C   UNL     1     151.477 165.964 190.170  0.00  0.00    +0.014 C 
ATOM      3  C   UNL     1     152.395 166.493 189.087  0.00  0.00    +0.134 C 
ATOM      4  O   UNL     1     152.879 167.625 189.146  0.00  0.00    -0.297 OA
ATOM      5  C   UNL     1     152.714 165.585 187.916  0.00  0.00    +0.006 C 
ATOM      6  C   UNL     1     151.498 165.126 187.120  0.00  0.00    -0.044 C 
ATOM      7  C   UNL     1     150.650 166.282 186.569  0.00  0.00    -0.026 C 
ATOM      8  C   UNL     1     149.641 165.766 185.533  0.00  0.00    +0.065 C 
ATOM      9  C   UNL     1     148.506 166.759 185.290  0.00  0.00    +0.071 C 
ATOM     10  C   UNL     1     147.351 166.010 184.683  0.00  0.00    +0.310 C 
ATOM     11  O   UNL     1     147.385 165.488 183.574  0.00  0.00    -0.251 OA
ATOM     12  O   UNL     1     146.314 165.924 185.564  0.00  0.00    -0.461 OA
ATOM     13  C   UNL     1     145.305 164.929 185.262  0.00  0.00    +0.110 C 
ATOM     14  C   UNL     1     144.028 165.254 186.084  0.00  0.00    +0.020 C 
ATOM     15  C   UNL     1     143.538 166.708 185.801  0.00  0.00    +0.068 C 
ATOM     16  C   UNL     1     142.411 167.182 186.754  0.00  0.00    -0.008 C 
ATOM     17  C   UNL     1     142.785 167.011 188.196  0.00  0.00    -0.077 C 
ATOM     18  C   UNL     1     142.057 166.348 189.111  0.00  0.00    -0.003 C 
ATOM     19  C   UNL     1     142.588 166.122 190.412  0.00  0.00    +0.220 A 
ATOM     20  N   UNL     1     143.872 166.163 190.739  0.00  0.00    -0.205 NA
ATOM     21  C   UNL     1     143.917 165.891 192.082  0.00  0.00    +0.164 A 
ATOM     22  C   UNL     1     142.651 165.676 192.552  0.00  0.00    +0.125 A 
ATOM     23  O   UNL     1     141.793 165.787 191.497  0.00  0.00    -0.443 OA
ATOM     24  C   UNL     1     145.228 165.838 192.923  0.00  0.00    +0.250 A 
ATOM     25  N   UNL     1     146.430 165.951 192.384  0.00  0.00    -0.203 NA
ATOM     26  C   UNL     1     147.286 165.887 193.452  0.00  0.00    +0.164 A 
ATOM     27  C   UNL     1     146.571 165.724 194.614  0.00  0.00    +0.125 A 
ATOM     28  O   UNL     1     145.249 165.665 194.290  0.00  0.00    -0.442 OA
ATOM     29  C   UNL     1     148.837 165.999 193.364  0.00  0.00    +0.249 A 
ATOM     30  N   UNL     1     149.498 166.134 192.228  0.00  0.00    -0.212 NA
ATOM     31  C   UNL     1     150.822 166.224 192.593  0.00  0.00    +0.083 A 
ATOM     32  C   UNL     1     150.907 166.140 193.964  0.00  0.00    +0.116 A 
ATOM     33  O   UNL     1     149.653 165.986 194.468  0.00  0.00    -0.442 OA
ATOM     34  H   UNL     1     152.068 167.539 191.535  0.00  0.00    +0.037 HD
ATOM     35  H   UNL     1     151.468 164.870 190.143  0.00  0.00    +0.035 HD
ATOM     36  H   UNL     1     150.468 166.308 189.910  0.00  0.00    +0.035 HD
ATOM     37  H   UNL     1     153.410 166.114 187.254  0.00  0.00    +0.034 HD
ATOM     38  H   UNL     1     153.252 164.716 188.310  0.00  0.00    +0.034 HD
ATOM     39  H   UNL     1     151.854 164.498 186.293  0.00  0.00    +0.027 HD
ATOM     40  H   UNL     1     150.863 164.487 187.745  0.00  0.00    +0.027 HD
ATOM     41  H   UNL     1     151.306 167.030 186.109  0.00  0.00    +0.029 HD
ATOM     42  H   UNL     1     150.126 166.760 187.403  0.00  0.00    +0.029 HD
ATOM     43  H   UNL     1     149.253 164.797 185.857  0.00  0.00    +0.060 HD
ATOM     44  H   UNL     1     148.795 167.561 184.601  0.00  0.00    +0.040 HD
ATOM     45  H   UNL     1     148.173 167.221 186.225  0.00  0.00    +0.040 HD
ATOM     46  H   UNL     1     145.052 164.999 184.196  0.00  0.00    +0.074 HD
ATOM     47  H   UNL     1     144.297 165.204 187.144  0.00  0.00    +0.036 HD
ATOM     48  H   UNL     1     144.390 167.390 185.930  0.00  0.00    +0.060 HD
ATOM     49  H   UNL     1     141.472 166.669 186.516  0.00  0.00    +0.033 HD
ATOM     50  H   UNL     1     142.208 168.245 186.575  0.00  0.00    +0.033 HD
ATOM     51  H   UNL     1     143.760 167.414 188.480  0.00  0.00    +0.057 HD
ATOM     52  H   UNL     1     141.068 165.971 188.889  0.00  0.00    +0.067 HD
ATOM     53  H   UNL     1     142.219 165.415 193.504  0.00  0.00    +0.105 HD
ATOM     54  H   UNL     1     146.823 165.628 195.659  0.00  0.00    +0.105 HD
ATOM     55  H   UNL     1     151.713 166.181 194.683  0.00  0.00    +0.105 HD
ENDROOT
BRANCH   1  56
ATOM     56  C   UNL     1     153.223 165.790 191.979  0.00  0.00    -0.056 C 
ATOM     57  H   UNL     1     153.767 165.413 191.105  0.00  0.00    +0.024 HD
ATOM     58  H   UNL     1     153.050 164.936 192.639  0.00  0.00    +0.024 HD
ATOM     59  H   UNL     1     153.880 166.496 192.500  0.00  0.00    +0.024 HD
ENDBRANCH   1  56
BRANCH  14  60
ATOM     60  C   UNL     1     142.923 164.219 185.822  0.00  0.00    -0.057 C 
ATOM     61  H   UNL     1     142.483 163.860 186.756  0.00  0.00    +0.023 HD
ATOM     62  H   UNL     1     143.295 163.357 185.263  0.00  0.00    +0.023 HD
ATOM     63  H   UNL     1     142.119 164.652 185.219  0.00  0.00    +0.023 HD
ENDBRANCH  14  60
BRANCH  13  64
ATOM     64  C   UNL     1     145.887 163.520 185.543  0.00  0.00    +0.011 C 
ATOM     65  H   UNL     1     146.505 163.261 184.678  0.00  0.00    +0.033 HD
ATOM     66  H   UNL     1     145.073 162.788 185.566  0.00  0.00    +0.033 HD
BRANCH  64  67
ATOM     67  C   UNL     1     146.756 163.373 186.818  0.00  0.00    +0.064 C 
ATOM     68  H   UNL     1     147.689 163.931 186.670  0.00  0.00    +0.060 HD
BRANCH  67  69
ATOM     69  C   UNL     1     146.029 163.973 188.064  0.00  0.00    -0.017 C 
ATOM     70  H   UNL     1     145.141 164.507 187.697  0.00  0.00    +0.032 HD
BRANCH  69  71
ATOM     71  C   UNL     1     145.551 162.891 189.042  0.00  0.00    -0.060 C 
ATOM     72  H   UNL     1     144.536 162.556 188.807  0.00  0.00    +0.023 HD
ATOM     73  H   UNL     1     145.563 163.240 190.078  0.00  0.00    +0.023 HD
ATOM     74  H   UNL     1     146.212 162.022 189.020  0.00  0.00    +0.023 HD
ENDBRANCH  69  71
BRANCH  69  75
ATOM     75  C   UNL     1     146.939 165.006 188.776  0.00  0.00    -0.041 C 
ATOM     76  H   UNL     1     147.883 165.063 188.218  0.00  0.00    +0.027 HD
ATOM     77  H   UNL     1     147.194 164.663 189.786  0.00  0.00    +0.027 HD
BRANCH  75  78
ATOM     78  C   UNL     1     146.364 166.426 188.825  0.00  0.00    +0.007 C 
ATOM     79  H   UNL     1     145.811 166.618 187.900  0.00  0.00    +0.034 HD
ATOM     80  H   UNL     1     145.655 166.512 189.656  0.00  0.00    +0.034 HD
BRANCH  78  81
ATOM     81  C   UNL     1     147.403 167.537 188.934  0.00  0.00    +0.140 C 
ATOM     82  O   UNL     1     148.579 167.312 189.226  0.00  0.00    -0.297 OA
BRANCH  81  83
ATOM     83  C   UNL     1     146.903 168.949 188.659  0.00  0.00    +0.052 C 
ATOM     84  H   UNL     1     147.770 169.584 188.448  0.00  0.00    +0.041 HD
BRANCH  83  85
ATOM     85  C   UNL     1     146.035 168.920 187.398  0.00  0.00    -0.052 C 
ATOM     86  H   UNL     1     145.405 168.027 187.371  0.00  0.00    +0.024 HD
ATOM     87  H   UNL     1     145.374 169.790 187.345  0.00  0.00    +0.024 HD
ATOM     88  H   UNL     1     146.656 168.929 186.497  0.00  0.00    +0.024 HD
ENDBRANCH  83  85
BRANCH  83  89
ATOM     89  C   UNL     1     146.124 169.541 189.858  0.00  0.00    +0.118 C 
ATOM     90  H   UNL     1     146.077 168.790 190.654  0.00  0.00    +0.075 HD
BRANCH  89  91
ATOM     91  C   UNL     1     146.764 170.824 190.464  0.00  0.00    +0.014 C 
ATOM     92  H   UNL     1     146.284 170.980 191.429  0.00  0.00    +0.038 HD
BRANCH  91  93
ATOM     93  C   UNL     1     146.458 172.058 189.608  0.00  0.00    -0.056 C 
ATOM     94  H   UNL     1     147.109 172.125 188.727  0.00  0.00    +0.024 HD
ATOM     95  H   UNL     1     146.593 172.977 190.190  0.00  0.00    +0.024 HD
ATOM     96  H   UNL     1     145.419 172.036 189.260  0.00  0.00    +0.024 HD
ENDBRANCH  91  93
BRANCH  91  97
ATOM     97  C   UNL     1     148.262 170.697 190.642  0.00  0.00    -0.064 C 
ATOM     98  C   UNL     1     149.079 171.348 191.483  0.00  0.00    -0.010 C 
ATOM     99  H   UNL     1     148.718 169.913 190.035  0.00  0.00    +0.059 HD
ATOM    100  H   UNL     1     150.110 170.996 191.517  0.00  0.00    +0.078 HD
BRANCH  98 101
ATOM    101  N   UNL     1     148.879 172.377 192.390  0.00  0.00    -0.317 N 
BRANCH 101 102
ATOM    102  C   UNL     1     149.435 172.284 193.744  0.00  0.00    +0.002 C 
ATOM    103  H   UNL     1     148.791 172.799 194.470  0.00  0.00    +0.043 HD
ATOM    104  H   UNL     1     150.425 172.755 193.793  0.00  0.00    +0.043 HD
ATOM    105  H   UNL     1     149.525 171.236 194.049  0.00  0.00    +0.043 HD
ENDBRANCH 101 102
BRANCH 101 106
ATOM    106  C   UNL     1     148.426 173.717 192.038  0.00  0.00    +0.110 C 
ATOM    107  H   UNL     1     149.082 174.512 192.382  0.00  0.00    +0.077 HD
ATOM    108  H   UNL     1     148.301 173.828 190.957  0.00  0.00    +0.077 HD
BRANCH 106 109
ATOM    109  O   UNL     1     147.176 173.907 192.670  0.00  0.00    -0.377 OA
ATOM    110  H   UNL     1     146.868 172.990 192.781  0.00  0.00    +0.211 HD
ENDBRANCH 106 109
ENDBRANCH 101 106
ENDBRANCH  98 101
ENDBRANCH  91  97
ENDBRANCH  89  91
BRANCH  89 111
ATOM    111  O   UNL     1     144.790 169.869 189.382  0.00  0.00    -0.460 OA
BRANCH 111 112
ATOM    112  C   UNL     1     143.770 169.818 190.280  0.00  0.00    +0.304 C 
ATOM    113  O   UNL     1     143.820 169.331 191.399  0.00  0.00    -0.251 OA
BRANCH 112 114
ATOM    114  C   UNL     1     142.548 170.451 189.691  0.00  0.00    +0.033 C 
ATOM    115  H   UNL     1     142.473 171.491 190.021  0.00  0.00    +0.034 HD
ATOM    116  H   UNL     1     141.660 169.886 189.983  0.00  0.00    +0.034 HD
ATOM    117  H   UNL     1     142.624 170.438 188.598  0.00  0.00    +0.034 HD
ENDBRANCH 112 114
ENDBRANCH 111 112
ENDBRANCH  89 111
ENDBRANCH  83  89
ENDBRANCH  81  83
ENDBRANCH  78  81
ENDBRANCH  75  78
ENDBRANCH  69  75
ENDBRANCH  67  69
BRANCH  67 118
ATOM    118  O   UNL     1     147.026 161.991 187.064  0.00  0.00    -0.379 OA
BRANCH 118 119
ATOM    119  C   UNL     1     148.414 161.665 187.035  0.00  0.00    +0.037 C 
ATOM    120  H   UNL     1     148.818 161.620 188.049  0.00  0.00    +0.052 HD
ATOM    121  H   UNL     1     148.588 160.716 186.520  0.00  0.00    +0.052 HD
ATOM    122  H   UNL     1     148.937 162.456 186.489  0.00  0.00    +0.052 HD
ENDBRANCH 118 119
ENDBRANCH  67 118
ENDBRANCH  64  67
ENDBRANCH  13  64
BRANCH   8 123
ATOM    123  O   UNL     1     150.353 165.556 184.311  0.00  0.00    -0.391 OA
ATOM    124  H   UNL     1     151.285 165.381 184.551  0.00  0.00    +0.210 HD
ENDBRANCH   8 123
BRANCH  15 125
ATOM    125  O   UNL     1     143.072 166.769 184.445  0.00  0.00    -0.379 OA
BRANCH 125 126
ATOM    126  C   UNL     1     143.580 167.894 183.735  0.00  0.00    +0.037 C 
ATOM    127  H   UNL     1     142.958 168.103 182.858  0.00  0.00    +0.052 HD
ATOM    128  H   UNL     1     143.548 168.761 184.399  0.00  0.00    +0.052 HD
ATOM    129  H   UNL     1     144.619 167.729 183.430  0.00  0.00    +0.052 HD
ENDBRANCH 125 126
ENDBRANCH  15 125
TORSDOF 27
ENDMDL
MODEL 6
REMARK VINA RESULT:      -5.7      1.291      3.217
REMARK  Name = Ulapualide A_conf1
REMARK  27 active torsions:
REMARK  status: ('A' for Active; 'I' for Inactive)
REMARK    1  A    between atoms: C_1  and  C_2
REMARK    2  A    between atoms: C_9  and  O_63
REMARK    3  A    between atoms: C_14  and  C_38
REMARK    4  A    between atoms: C_15  and  C_37
REMARK    5  A    between atoms: C_16  and  O_35
REMARK    6  A    between atoms: O_35  and  C_36
REMARK    7  A    between atoms: C_38  and  C_39
REMARK    8  A    between atoms: C_39  and  C_40
REMARK    9  A    between atoms: C_39  and  O_61
REMARK   10  A    between atoms: C_40  and  C_41
REMARK   11  A    between atoms: C_40  and  C_42
REMARK   12  A    between atoms: C_42  and  C_43
REMARK   13  A    between atoms: C_43  and  C_44
REMARK   14  A    between atoms: C_44  and  C_46
REMARK   15  A    between atoms: C_46  and  C_47
REMARK   16  A    between atoms: C_46  and  C_48
REMARK   17  A    between atoms: C_48  and  C_49
REMARK   18  A    between atoms: C_48  and  O_57
REMARK   19  A    between atoms: C_49  and  C_50
REMARK   20  A    between atoms: C_49  and  C_51
REMARK   21  A    between atoms: C_52  and  N_53
REMARK   22  A    between atoms: N_53  and  C_54
REMARK   23  A    between atoms: N_53  and  C_55
REMARK   24  A    between atoms: C_55  and  O_56
REMARK   25  A    between atoms: O_57  and  C_58
REMARK   26  A    between atoms: C_58  and  C_60
REMARK   27  A    between atoms: O_61  and  C_62
REMARK                            x       y       z     vdW  Elec       q    Type
REMARK                         _______ _______ _______ _____ _____    ______ ____
ROOT
ATOM      1  C   UNL     1     148.169 165.615 194.821  0.00  0.00    +0.008 C 
ATOM      2  C   UNL     1     147.038 165.959 193.830  0.00  0.00    +0.014 C 
ATOM      3  C   UNL     1     145.699 165.432 194.302  0.00  0.00    +0.134 C 
ATOM      4  O   UNL     1     145.601 164.353 194.892  0.00  0.00    -0.297 OA
ATOM      5  C   UNL     1     144.466 166.273 194.036  0.00  0.00    +0.006 C 
ATOM      6  C   UNL     1     144.204 166.563 192.562  0.00  0.00    -0.044 C 
ATOM      7  C   UNL     1     144.077 165.300 191.698  0.00  0.00    -0.026 C 
ATOM      8  C   UNL     1     143.511 165.646 190.314  0.00  0.00    +0.065 C 
ATOM      9  C   UNL     1     143.774 164.543 189.291  0.00  0.00    +0.071 C 
ATOM     10  C   UNL     1     143.651 165.141 187.916  0.00  0.00    +0.310 C 
ATOM     11  O   UNL     1     142.603 165.579 187.455  0.00  0.00    -0.251 OA
ATOM     12  O   UNL     1     144.868 165.203 187.305  0.00  0.00    -0.461 OA
ATOM     13  C   UNL     1     144.958 166.081 186.156  0.00  0.00    +0.110 C 
ATOM     14  C   UNL     1     146.231 165.710 185.347  0.00  0.00    +0.020 C 
ATOM     15  C   UNL     1     146.218 164.201 184.948  0.00  0.00    +0.068 C 
ATOM     16  C   UNL     1     147.557 163.705 184.345  0.00  0.00    -0.008 C 
ATOM     17  C   UNL     1     148.724 164.017 185.233  0.00  0.00    -0.077 C 
ATOM     18  C   UNL     1     149.829 164.682 184.854  0.00  0.00    -0.003 C 
ATOM     19  C   UNL     1     150.803 165.051 185.824  0.00  0.00    +0.220 A 
ATOM     20  N   UNL     1     150.593 165.146 187.130  0.00  0.00    -0.205 NA
ATOM     21  C   UNL     1     151.797 165.521 187.668  0.00  0.00    +0.164 A 
ATOM     22  C   UNL     1     152.724 165.662 186.672  0.00  0.00    +0.125 A 
ATOM     23  O   UNL     1     152.102 165.396 185.488  0.00  0.00    -0.443 OA
ATOM     24  C   UNL     1     152.044 165.751 189.189  0.00  0.00    +0.250 A 
ATOM     25  N   UNL     1     151.076 165.703 190.088  0.00  0.00    -0.203 NA
ATOM     26  C   UNL     1     151.712 165.922 191.282  0.00  0.00    +0.164 A 
ATOM     27  C   UNL     1     153.056 166.110 191.066  0.00  0.00    +0.125 A 
ATOM     28  O   UNL     1     153.282 166.029 189.726  0.00  0.00    -0.442 OA
ATOM     29  C   UNL     1     151.018 165.938 192.677  0.00  0.00    +0.249 A 
ATOM     30  N   UNL     1     149.718 165.775 192.849  0.00  0.00    -0.212 NA
ATOM     31  C   UNL     1     149.529 165.828 194.212  0.00  0.00    +0.083 A 
ATOM     32  C   UNL     1     150.750 166.023 194.818  0.00  0.00    +0.116 A 
ATOM     33  O   UNL     1     151.705 166.106 193.853  0.00  0.00    -0.442 OA
ATOM     34  H   UNL     1     148.110 164.549 195.079  0.00  0.00    +0.037 HD
ATOM     35  H   UNL     1     146.978 167.044 193.692  0.00  0.00    +0.035 HD
ATOM     36  H   UNL     1     147.214 165.511 192.845  0.00  0.00    +0.035 HD
ATOM     37  H   UNL     1     143.602 165.757 194.469  0.00  0.00    +0.034 HD
ATOM     38  H   UNL     1     144.583 167.212 194.586  0.00  0.00    +0.034 HD
ATOM     39  H   UNL     1     143.282 167.155 192.494  0.00  0.00    +0.027 HD
ATOM     40  H   UNL     1     145.007 167.190 192.157  0.00  0.00    +0.027 HD
ATOM     41  H   UNL     1     143.421 164.578 192.199  0.00  0.00    +0.029 HD
ATOM     42  H   UNL     1     145.067 164.842 191.599  0.00  0.00    +0.029 HD
ATOM     43  H   UNL     1     143.928 166.600 189.981  0.00  0.00    +0.060 HD
ATOM     44  H   UNL     1     143.056 163.719 189.372  0.00  0.00    +0.040 HD
ATOM     45  H   UNL     1     144.780 164.126 189.404  0.00  0.00    +0.040 HD
ATOM     46  H   UNL     1     144.084 165.909 185.515  0.00  0.00    +0.074 HD
ATOM     47  H   UNL     1     147.094 165.863 186.003  0.00  0.00    +0.036 HD
ATOM     48  H   UNL     1     146.021 163.608 185.851  0.00  0.00    +0.060 HD
ATOM     49  H   UNL     1     147.694 164.116 183.337  0.00  0.00    +0.033 HD
ATOM     50  H   UNL     1     147.510 162.618 184.205  0.00  0.00    +0.033 HD
ATOM     51  H   UNL     1     148.610 163.723 186.279  0.00  0.00    +0.057 HD
ATOM     52  H   UNL     1     150.006 164.954 183.822  0.00  0.00    +0.067 HD
ATOM     53  H   UNL     1     153.759 165.956 186.623  0.00  0.00    +0.105 HD
ATOM     54  H   UNL     1     153.910 166.306 191.696  0.00  0.00    +0.105 HD
ATOM     55  H   UNL     1     151.089 166.107 195.840  0.00  0.00    +0.105 HD
ENDROOT
BRANCH   1  56
ATOM     56  C   UNL     1     147.996 166.421 196.116  0.00  0.00    -0.056 C 
ATOM     57  H   UNL     1     148.082 167.497 195.929  0.00  0.00    +0.024 HD
ATOM     58  H   UNL     1     148.762 166.162 196.851  0.00  0.00    +0.024 HD
ATOM     59  H   UNL     1     147.014 166.240 196.569  0.00  0.00    +0.024 HD
ENDBRANCH   1  56
BRANCH  14  60
ATOM     60  C   UNL     1     146.394 166.622 184.122  0.00  0.00    -0.057 C 
ATOM     61  H   UNL     1     147.201 166.276 183.471  0.00  0.00    +0.023 HD
ATOM     62  H   UNL     1     146.601 167.657 184.408  0.00  0.00    +0.023 HD
ATOM     63  H   UNL     1     145.474 166.646 183.529  0.00  0.00    +0.023 HD
ENDBRANCH  14  60
BRANCH  13  64
ATOM     64  C   UNL     1     144.934 167.552 186.643  0.00  0.00    +0.011 C 
ATOM     65  H   UNL     1     143.971 167.700 187.140  0.00  0.00    +0.033 HD
ATOM     66  H   UNL     1     144.936 168.223 185.777  0.00  0.00    +0.033 HD
BRANCH  64  67
ATOM     67  C   UNL     1     146.054 167.972 187.629  0.00  0.00    +0.064 C 
ATOM     68  H   UNL     1     146.736 167.123 187.764  0.00  0.00    +0.060 HD
BRANCH  67  69
ATOM     69  C   UNL     1     146.883 169.169 187.060  0.00  0.00    -0.017 C 
ATOM     70  H   UNL     1     147.149 169.813 187.909  0.00  0.00    +0.032 HD
BRANCH  69  71
ATOM     71  C   UNL     1     148.187 168.714 186.391  0.00  0.00    -0.060 C 
ATOM     72  H   UNL     1     148.795 168.106 187.068  0.00  0.00    +0.023 HD
ATOM     73  H   UNL     1     148.792 169.559 186.055  0.00  0.00    +0.023 HD
ATOM     74  H   UNL     1     147.984 168.127 185.493  0.00  0.00    +0.023 HD
ENDBRANCH  69  71
BRANCH  69  75
ATOM     75  C   UNL     1     146.019 170.009 186.084  0.00  0.00    -0.041 C 
ATOM     76  H   UNL     1     145.082 169.463 185.909  0.00  0.00    +0.027 HD
ATOM     77  H   UNL     1     146.514 170.098 185.110  0.00  0.00    +0.027 HD
BRANCH  75  78
ATOM     78  C   UNL     1     145.635 171.394 186.616  0.00  0.00    +0.007 C 
ATOM     79  H   UNL     1     146.364 171.699 187.373  0.00  0.00    +0.034 HD
ATOM     80  H   UNL     1     145.677 172.129 185.804  0.00  0.00    +0.034 HD
BRANCH  78  81
ATOM     81  C   UNL     1     144.270 171.469 187.291  0.00  0.00    +0.140 C 
ATOM     82  O   UNL     1     143.264 170.951 186.801  0.00  0.00    -0.297 OA
BRANCH  81  83
ATOM     83  C   UNL     1     144.218 172.222 188.614  0.00  0.00    +0.052 C 
ATOM     84  H   UNL     1     145.032 172.956 188.622  0.00  0.00    +0.041 HD
BRANCH  83  85
ATOM     85  C   UNL     1     142.898 172.998 188.678  0.00  0.00    -0.052 C 
ATOM     86  H   UNL     1     142.982 173.869 189.332  0.00  0.00    +0.024 HD
ATOM     87  H   UNL     1     142.596 173.357 187.690  0.00  0.00    +0.024 HD
ATOM     88  H   UNL     1     142.091 172.362 189.053  0.00  0.00    +0.024 HD
ENDBRANCH  83  85
BRANCH  83  89
ATOM     89  C   UNL     1     144.372 171.283 189.833  0.00  0.00    +0.118 C 
ATOM     90  H   UNL     1     144.658 170.287 189.478  0.00  0.00    +0.075 HD
BRANCH  89  91
ATOM     91  C   UNL     1     145.450 171.741 190.859  0.00  0.00    +0.014 C 
ATOM     92  H   UNL     1     145.573 170.918 191.562  0.00  0.00    +0.038 HD
BRANCH  91  93
ATOM     93  C   UNL     1     144.971 172.952 191.667  0.00  0.00    -0.056 C 
ATOM     94  H   UNL     1     143.970 172.800 192.090  0.00  0.00    +0.024 HD
ATOM     95  H   UNL     1     144.933 173.848 191.037  0.00  0.00    +0.024 HD
ATOM     96  H   UNL     1     145.660 173.158 192.494  0.00  0.00    +0.024 HD
ENDBRANCH  91  93
BRANCH  91  97
ATOM     97  C   UNL     1     146.773 172.069 190.203  0.00  0.00    -0.064 C 
ATOM     98  C   UNL     1     148.021 171.880 190.658  0.00  0.00    -0.010 C 
ATOM     99  H   UNL     1     146.684 172.455 189.185  0.00  0.00    +0.059 HD
ATOM    100  H   UNL     1     148.825 172.081 189.949  0.00  0.00    +0.078 HD
BRANCH  98 101
ATOM    101  N   UNL     1     148.529 171.418 191.861  0.00  0.00    -0.317 N 
BRANCH 101 102
ATOM    102  C   UNL     1     148.517 172.281 193.047  0.00  0.00    +0.002 C 
ATOM    103  H   UNL     1     148.521 171.683 193.969  0.00  0.00    +0.043 HD
ATOM    104  H   UNL     1     147.616 172.906 193.067  0.00  0.00    +0.043 HD
ATOM    105  H   UNL     1     149.400 172.929 193.057  0.00  0.00    +0.043 HD
ENDBRANCH 101 102
BRANCH 101 106
ATOM    106  C   UNL     1     148.801 170.018 192.164  0.00  0.00    +0.110 C 
ATOM    107  H   UNL     1     149.443 169.867 193.028  0.00  0.00    +0.077 HD
ATOM    108  H   UNL     1     147.878 169.455 192.328  0.00  0.00    +0.077 HD
BRANCH 106 109
ATOM    109  O   UNL     1     149.479 169.480 191.045  0.00  0.00    -0.377 OA
ATOM    110  H   UNL     1     148.751 169.049 190.562  0.00  0.00    +0.211 HD
ENDBRANCH 106 109
ENDBRANCH 101 106
ENDBRANCH  98 101
ENDBRANCH  91  97
ENDBRANCH  89  91
BRANCH  89 111
ATOM    111  O   UNL     1     143.083 171.237 190.504  0.00  0.00    -0.460 OA
BRANCH 111 112
ATOM    112  C   UNL     1     142.634 170.025 190.925  0.00  0.00    +0.304 C 
ATOM    113  O   UNL     1     142.609 169.628 192.080  0.00  0.00    -0.251 OA
BRANCH 112 114
ATOM    114  C   UNL     1     142.171 169.222 189.749  0.00  0.00    +0.033 C 
ATOM    115  H   UNL     1     142.349 168.160 189.932  0.00  0.00    +0.034 HD
ATOM    116  H   UNL     1     142.690 169.554 188.846  0.00  0.00    +0.034 HD
ATOM    117  H   UNL     1     141.095 169.375 189.608  0.00  0.00    +0.034 HD
ENDBRANCH 112 114
ENDBRANCH 111 112
ENDBRANCH  89 111
ENDBRANCH  83  89
ENDBRANCH  81  83
ENDBRANCH  78  81
ENDBRANCH  75  78
ENDBRANCH  69  75
ENDBRANCH  67  69
BRANCH  67 118
ATOM    118  O   UNL     1     145.479 168.363 188.878  0.00  0.00    -0.379 OA
BRANCH 118 119
ATOM    119  C   UNL     1     146.336 168.145 189.996  0.00  0.00    +0.037 C 
ATOM    120  H   UNL     1     147.128 168.897 190.024  0.00  0.00    +0.052 HD
ATOM    121  H   UNL     1     145.775 168.157 190.935  0.00  0.00    +0.052 HD
ATOM    122  H   UNL     1     146.799 167.159 189.881  0.00  0.00    +0.052 HD
ENDBRANCH 118 119
ENDBRANCH  67 118
ENDBRANCH  64  67
ENDBRANCH  13  64
BRANCH   8 123
ATOM    123  O   UNL     1     142.100 165.824 190.461  0.00  0.00    -0.391 OA
ATOM    124  H   UNL     1     141.966 166.415 191.230  0.00  0.00    +0.210 HD
ENDBRANCH   8 123
BRANCH  15 125
ATOM    125  O   UNL     1     145.162 163.998 183.997  0.00  0.00    -0.379 OA
BRANCH 125 126
ATOM    126  C   UNL     1     144.323 162.896 184.329  0.00  0.00    +0.037 C 
ATOM    127  H   UNL     1     144.380 162.127 183.551  0.00  0.00    +0.052 HD
ATOM    128  H   UNL     1     144.679 162.466 185.269  0.00  0.00    +0.052 HD
ATOM    129  H   UNL     1     143.286 163.220 184.466  0.00  0.00    +0.052 HD
ENDBRANCH 125 126
ENDBRANCH  15 125
TORSDOF 27
ENDMDL
MODEL 7
REMARK VINA RESULT:      -5.7      1.999      5.799
REMARK  Name = Ulapualide A_conf1
REMARK  27 active torsions:
REMARK  status: ('A' for Active; 'I' for Inactive)
REMARK    1  A    between atoms: C_1  and  C_2
REMARK    2  A    between atoms: C_9  and  O_63
REMARK    3  A    between atoms: C_14  and  C_38
REMARK    4  A    between atoms: C_15  and  C_37
REMARK    5  A    between atoms: C_16  and  O_35
REMARK    6  A    between atoms: O_35  and  C_36
REMARK    7  A    between atoms: C_38  and  C_39
REMARK    8  A    between atoms: C_39  and  C_40
REMARK    9  A    between atoms: C_39  and  O_61
REMARK   10  A    between atoms: C_40  and  C_41
REMARK   11  A    between atoms: C_40  and  C_42
REMARK   12  A    between atoms: C_42  and  C_43
REMARK   13  A    between atoms: C_43  and  C_44
REMARK   14  A    between atoms: C_44  and  C_46
REMARK   15  A    between atoms: C_46  and  C_47
REMARK   16  A    between atoms: C_46  and  C_48
REMARK   17  A    between atoms: C_48  and  C_49
REMARK   18  A    between atoms: C_48  and  O_57
REMARK   19  A    between atoms: C_49  and  C_50
REMARK   20  A    between atoms: C_49  and  C_51
REMARK   21  A    between atoms: C_52  and  N_53
REMARK   22  A    between atoms: N_53  and  C_54
REMARK   23  A    between atoms: N_53  and  C_55
REMARK   24  A    between atoms: C_55  and  O_56
REMARK   25  A    between atoms: O_57  and  C_58
REMARK   26  A    between atoms: C_58  and  C_60
REMARK   27  A    between atoms: O_61  and  C_62
REMARK                            x       y       z     vdW  Elec       q    Type
REMARK                         _______ _______ _______ _____ _____    ______ ____
ROOT
ATOM      1  C   UNL     1     151.667 166.088 193.474  0.00  0.00    +0.008 C 
ATOM      2  C   UNL     1     151.557 165.786 191.965  0.00  0.00    +0.014 C 
ATOM      3  C   UNL     1     152.721 166.370 191.189  0.00  0.00    +0.134 C 
ATOM      4  O   UNL     1     153.222 167.454 191.496  0.00  0.00    -0.297 OA
ATOM      5  C   UNL     1     153.266 165.579 190.017  0.00  0.00    +0.006 C 
ATOM      6  C   UNL     1     152.249 165.294 188.918  0.00  0.00    -0.044 C 
ATOM      7  C   UNL     1     151.597 166.558 188.339  0.00  0.00    -0.026 C 
ATOM      8  C   UNL     1     150.834 166.229 187.047  0.00  0.00    +0.065 C 
ATOM      9  C   UNL     1     149.826 167.316 186.680  0.00  0.00    +0.071 C 
ATOM     10  C   UNL     1     148.814 166.717 185.742  0.00  0.00    +0.310 C 
ATOM     11  O   UNL     1     149.082 166.321 184.613  0.00  0.00    -0.251 OA
ATOM     12  O   UNL     1     147.599 166.602 186.350  0.00  0.00    -0.461 OA
ATOM     13  C   UNL     1     146.649 165.717 185.708  0.00  0.00    +0.110 C 
ATOM     14  C   UNL     1     145.230 166.032 186.256  0.00  0.00    +0.020 C 
ATOM     15  C   UNL     1     144.876 167.537 186.054  0.00  0.00    +0.068 C 
ATOM     16  C   UNL     1     143.579 167.975 186.781  0.00  0.00    -0.008 C 
ATOM     17  C   UNL     1     143.603 167.620 188.237  0.00  0.00    -0.077 C 
ATOM     18  C   UNL     1     142.658 166.908 188.876  0.00  0.00    -0.003 C 
ATOM     19  C   UNL     1     142.865 166.503 190.225  0.00  0.00    +0.220 A 
ATOM     20  N   UNL     1     144.040 166.423 190.834  0.00  0.00    -0.205 NA
ATOM     21  C   UNL     1     143.764 166.000 192.109  0.00  0.00    +0.164 A 
ATOM     22  C   UNL     1     142.416 165.818 192.252  0.00  0.00    +0.125 A 
ATOM     23  O   UNL     1     141.830 166.103 191.054  0.00  0.00    -0.443 OA
ATOM     24  C   UNL     1     144.842 165.767 193.209  0.00  0.00    +0.250 A 
ATOM     25  N   UNL     1     146.140 165.859 192.971  0.00  0.00    -0.203 NA
ATOM     26  C   UNL     1     146.723 165.619 194.188  0.00  0.00    +0.164 A 
ATOM     27  C   UNL     1     145.753 165.376 195.130  0.00  0.00    +0.125 A 
ATOM     28  O   UNL     1     144.541 165.441 194.513  0.00  0.00    -0.442 OA
ATOM     29  C   UNL     1     148.256 165.638 194.465  0.00  0.00    +0.249 A 
ATOM     30  N   UNL     1     149.165 165.855 193.531  0.00  0.00    -0.212 NA
ATOM     31  C   UNL     1     150.373 165.816 194.193  0.00  0.00    +0.083 A 
ATOM     32  C   UNL     1     150.135 165.574 195.527  0.00  0.00    +0.116 A 
ATOM     33  O   UNL     1     148.794 165.447 195.714  0.00  0.00    -0.442 OA
ATOM     34  H   UNL     1     151.879 167.156 193.613  0.00  0.00    +0.037 HD
ATOM     35  H   UNL     1     151.513 164.704 191.801  0.00  0.00    +0.035 HD
ATOM     36  H   UNL     1     150.650 166.222 191.530  0.00  0.00    +0.035 HD
ATOM     37  H   UNL     1     154.115 166.132 189.599  0.00  0.00    +0.034 HD
ATOM     38  H   UNL     1     153.664 164.638 190.411  0.00  0.00    +0.034 HD
ATOM     39  H   UNL     1     152.761 164.740 188.120  0.00  0.00    +0.027 HD
ATOM     40  H   UNL     1     151.462 164.632 189.300  0.00  0.00    +0.027 HD
ATOM     41  H   UNL     1     152.370 167.307 188.134  0.00  0.00    +0.029 HD
ATOM     42  H   UNL     1     150.913 166.973 189.086  0.00  0.00    +0.029 HD
ATOM     43  H   UNL     1     150.345 165.257 187.153  0.00  0.00    +0.060 HD
ATOM     44  H   UNL     1     150.297 168.169 186.178  0.00  0.00    +0.040 HD
ATOM     45  H   UNL     1     149.305 167.691 187.567  0.00  0.00    +0.040 HD
ATOM     46  H   UNL     1     146.651 165.922 184.630  0.00  0.00    +0.074 HD
ATOM     47  H   UNL     1     145.246 165.846 187.335  0.00  0.00    +0.036 HD
ATOM     48  H   UNL     1     145.701 168.143 186.454  0.00  0.00    +0.060 HD
ATOM     49  H   UNL     1     142.700 167.555 186.277  0.00  0.00    +0.033 HD
ATOM     50  H   UNL     1     143.464 169.063 186.693  0.00  0.00    +0.033 HD
ATOM     51  H   UNL     1     144.502 167.923 188.780  0.00  0.00    +0.057 HD
ATOM     52  H   UNL     1     141.733 166.625 188.393  0.00  0.00    +0.067 HD
ATOM     53  H   UNL     1     141.767 165.481 193.044  0.00  0.00    +0.105 HD
ATOM     54  H   UNL     1     145.754 165.147 196.185  0.00  0.00    +0.105 HD
ATOM     55  H   UNL     1     150.755 165.480 196.407  0.00  0.00    +0.105 HD
ENDROOT
BRANCH   1  56
ATOM     56  C   UNL     1     152.832 165.295 194.084  0.00  0.00    -0.056 C 
ATOM     57  H   UNL     1     152.986 165.560 195.135  0.00  0.00    +0.024 HD
ATOM     58  H   UNL     1     153.769 165.502 193.561  0.00  0.00    +0.024 HD
ATOM     59  H   UNL     1     152.647 164.215 194.036  0.00  0.00    +0.024 HD
ENDBRANCH   1  56
BRANCH  14  60
ATOM     60  C   UNL     1     144.176 165.108 185.627  0.00  0.00    -0.057 C 
ATOM     61  H   UNL     1     143.163 165.469 185.822  0.00  0.00    +0.023 HD
ATOM     62  H   UNL     1     144.255 164.084 186.001  0.00  0.00    +0.023 HD
ATOM     63  H   UNL     1     144.308 165.050 184.542  0.00  0.00    +0.023 HD
ENDBRANCH  14  60
BRANCH  13  64
ATOM     64  C   UNL     1     147.095 164.250 185.936  0.00  0.00    +0.011 C 
ATOM     65  H   UNL     1     147.940 164.074 185.263  0.00  0.00    +0.033 HD
ATOM     66  H   UNL     1     146.299 163.572 185.609  0.00  0.00    +0.033 HD
BRANCH  64  67
ATOM     67  C   UNL     1     147.538 163.877 187.373  0.00  0.00    +0.064 C 
ATOM     68  H   UNL     1     148.576 164.203 187.514  0.00  0.00    +0.060 HD
BRANCH  67  69
ATOM     69  C   UNL     1     146.656 164.606 188.438  0.00  0.00    -0.017 C 
ATOM     70  H   UNL     1     146.001 165.303 187.897  0.00  0.00    +0.032 HD
BRANCH  69  71
ATOM     71  C   UNL     1     145.761 163.636 189.221  0.00  0.00    -0.060 C 
ATOM     72  H   UNL     1     144.701 163.801 189.002  0.00  0.00    +0.023 HD
ATOM     73  H   UNL     1     145.903 163.727 190.301  0.00  0.00    +0.023 HD
ATOM     74  H   UNL     1     146.002 162.599 188.983  0.00  0.00    +0.023 HD
ENDBRANCH  69  71
BRANCH  69  75
ATOM     75  C   UNL     1     147.544 165.442 189.395  0.00  0.00    -0.041 C 
ATOM     76  H   UNL     1     148.568 165.430 189.000  0.00  0.00    +0.027 HD
ATOM     77  H   UNL     1     147.587 164.975 190.386  0.00  0.00    +0.027 HD
BRANCH  75  78
ATOM     78  C   UNL     1     147.130 166.912 189.517  0.00  0.00    +0.007 C 
ATOM     79  H   UNL     1     147.063 167.347 188.515  0.00  0.00    +0.034 HD
ATOM     80  H   UNL     1     146.136 166.983 189.974  0.00  0.00    +0.034 HD
BRANCH  78  81
ATOM     81  C   UNL     1     148.104 167.792 190.294  0.00  0.00    +0.140 C 
ATOM     82  O   UNL     1     149.325 167.714 190.143  0.00  0.00    -0.297 OA
BRANCH  81  83
ATOM     83  C   UNL     1     147.480 168.780 191.271  0.00  0.00    +0.052 C 
ATOM     84  H   UNL     1     146.487 168.408 191.546  0.00  0.00    +0.041 HD
BRANCH  83  85
ATOM     85  C   UNL     1     148.332 168.806 192.544  0.00  0.00    -0.052 C 
ATOM     86  H   UNL     1     149.148 168.081 192.489  0.00  0.00    +0.024 HD
ATOM     87  H   UNL     1     148.778 169.791 192.708  0.00  0.00    +0.024 HD
ATOM     88  H   UNL     1     147.724 168.575 193.424  0.00  0.00    +0.024 HD
ENDBRANCH  83  85
BRANCH  83  89
ATOM     89  C   UNL     1     147.339 170.197 190.666  0.00  0.00    +0.118 C 
ATOM     90  H   UNL     1     148.118 170.337 189.909  0.00  0.00    +0.075 HD
BRANCH  89  91
ATOM     91  C   UNL     1     145.967 170.462 189.978  0.00  0.00    +0.014 C 
ATOM     92  H   UNL     1     145.344 169.595 190.193  0.00  0.00    +0.038 HD
BRANCH  91  93
ATOM     93  C   UNL     1     146.113 170.542 188.455  0.00  0.00    -0.056 C 
ATOM     94  H   UNL     1     146.637 171.451 188.134  0.00  0.00    +0.024 HD
ATOM     95  H   UNL     1     145.130 170.538 187.970  0.00  0.00    +0.024 HD
ATOM     96  H   UNL     1     146.671 169.678 188.077  0.00  0.00    +0.024 HD
ENDBRANCH  91  93
BRANCH  91  97
ATOM     97  C   UNL     1     145.298 171.723 190.483  0.00  0.00    -0.064 C 
ATOM     98  C   UNL     1     143.996 171.979 190.673  0.00  0.00    -0.010 C 
ATOM     99  H   UNL     1     145.995 172.504 190.794  0.00  0.00    +0.059 HD
ATOM    100  H   UNL     1     143.761 172.922 191.167  0.00  0.00    +0.078 HD
BRANCH  98 101
ATOM    101  N   UNL     1     142.842 171.258 190.414  0.00  0.00    -0.317 N 
BRANCH 101 102
ATOM    102  C   UNL     1     142.402 171.040 189.031  0.00  0.00    +0.002 C 
ATOM    103  H   UNL     1     141.331 170.796 188.993  0.00  0.00    +0.043 HD
ATOM    104  H   UNL     1     142.945 170.203 188.576  0.00  0.00    +0.043 HD
ATOM    105  H   UNL     1     142.568 171.941 188.432  0.00  0.00    +0.043 HD
ENDBRANCH 101 102
BRANCH 101 106
ATOM    106  C   UNL     1     142.163 170.404 191.380  0.00  0.00    +0.110 C 
ATOM    107  H   UNL     1     141.862 170.915 192.291  0.00  0.00    +0.077 HD
ATOM    108  H   UNL     1     141.274 169.935 190.949  0.00  0.00    +0.077 HD
BRANCH 106 109
ATOM    109  O   UNL     1     143.082 169.396 191.756  0.00  0.00    -0.377 OA
ATOM    110  H   UNL     1     143.895 169.913 191.897  0.00  0.00    +0.211 HD
ENDBRANCH 106 109
ENDBRANCH 101 106
ENDBRANCH  98 101
ENDBRANCH  91  97
ENDBRANCH  89  91
BRANCH  89 111
ATOM    111  O   UNL     1     147.503 171.145 191.755  0.00  0.00    -0.460 OA
BRANCH 111 112
ATOM    112  C   UNL     1     148.443 172.117 191.608  0.00  0.00    +0.304 C 
ATOM    113  O   UNL     1     148.741 172.679 190.565  0.00  0.00    -0.251 OA
BRANCH 112 114
ATOM    114  C   UNL     1     149.082 172.404 192.931  0.00  0.00    +0.033 C 
ATOM    115  H   UNL     1     148.667 171.742 193.695  0.00  0.00    +0.034 HD
ATOM    116  H   UNL     1     148.925 173.452 193.199  0.00  0.00    +0.034 HD
ATOM    117  H   UNL     1     150.160 172.221 192.860  0.00  0.00    +0.034 HD
ENDBRANCH 112 114
ENDBRANCH 111 112
ENDBRANCH  89 111
ENDBRANCH  83  89
ENDBRANCH  81  83
ENDBRANCH  78  81
ENDBRANCH  75  78
ENDBRANCH  69  75
ENDBRANCH  67  69
BRANCH  67 118
ATOM    118  O   UNL     1     147.420 162.465 187.567  0.00  0.00    -0.379 OA
BRANCH 118 119
ATOM    119  C   UNL     1     148.610 161.744 187.255  0.00  0.00    +0.037 C 
ATOM    120  H   UNL     1     149.369 161.907 188.024  0.00  0.00    +0.052 HD
ATOM    121  H   UNL     1     148.409 160.674 187.149  0.00  0.00    +0.052 HD
ATOM    122  H   UNL     1     148.995 162.121 186.302  0.00  0.00    +0.052 HD
ENDBRANCH 118 119
ENDBRANCH  67 118
ENDBRANCH  64  67
ENDBRANCH  13  64
BRANCH   8 123
ATOM    123  O   UNL     1     151.800 166.110 185.999  0.00  0.00    -0.391 OA
ATOM    124  H   UNL     1     152.132 167.012 185.814  0.00  0.00    +0.210 HD
ENDBRANCH   8 123
BRANCH  15 125
ATOM    125  O   UNL     1     144.737 167.780 184.646  0.00  0.00    -0.379 OA
BRANCH 125 126
ATOM    126  C   UNL     1     143.689 168.695 184.342  0.00  0.00    +0.037 C 
ATOM    127  H   UNL     1     142.746 168.351 184.780  0.00  0.00    +0.052 HD
ATOM    128  H   UNL     1     143.943 169.663 184.781  0.00  0.00    +0.052 HD
ATOM    129  H   UNL     1     143.580 168.823 183.261  0.00  0.00    +0.052 HD
ENDBRANCH 125 126
ENDBRANCH  15 125
TORSDOF 27
ENDMDL
MODEL 8
REMARK VINA RESULT:      -5.6      2.132      6.155
REMARK  Name = Ulapualide A_conf1
REMARK  27 active torsions:
REMARK  status: ('A' for Active; 'I' for Inactive)
REMARK    1  A    between atoms: C_1  and  C_2
REMARK    2  A    between atoms: C_9  and  O_63
REMARK    3  A    between atoms: C_14  and  C_38
REMARK    4  A    between atoms: C_15  and  C_37
REMARK    5  A    between atoms: C_16  and  O_35
REMARK    6  A    between atoms: O_35  and  C_36
REMARK    7  A    between atoms: C_38  and  C_39
REMARK    8  A    between atoms: C_39  and  C_40
REMARK    9  A    between atoms: C_39  and  O_61
REMARK   10  A    between atoms: C_40  and  C_41
REMARK   11  A    between atoms: C_40  and  C_42
REMARK   12  A    between atoms: C_42  and  C_43
REMARK   13  A    between atoms: C_43  and  C_44
REMARK   14  A    between atoms: C_44  and  C_46
REMARK   15  A    between atoms: C_46  and  C_47
REMARK   16  A    between atoms: C_46  and  C_48
REMARK   17  A    between atoms: C_48  and  C_49
REMARK   18  A    between atoms: C_48  and  O_57
REMARK   19  A    between atoms: C_49  and  C_50
REMARK   20  A    between atoms: C_49  and  C_51
REMARK   21  A    between atoms: C_52  and  N_53
REMARK   22  A    between atoms: N_53  and  C_54
REMARK   23  A    between atoms: N_53  and  C_55
REMARK   24  A    between atoms: C_55  and  O_56
REMARK   25  A    between atoms: O_57  and  C_58
REMARK   26  A    between atoms: C_58  and  C_60
REMARK   27  A    between atoms: O_61  and  C_62
REMARK                            x       y       z     vdW  Elec       q    Type
REMARK                         _______ _______ _______ _____ _____    ______ ____
ROOT
ATOM      1  C   UNL     1     151.999 166.183 191.121  0.00  0.00    +0.008 C 
ATOM      2  C   UNL     1     151.231 166.027 189.793  0.00  0.00    +0.014 C 
ATOM      3  C   UNL     1     151.992 166.630 188.630  0.00  0.00    +0.134 C 
ATOM      4  O   UNL     1     152.659 167.659 188.759  0.00  0.00    -0.297 OA
ATOM      5  C   UNL     1     151.919 165.929 187.288  0.00  0.00    +0.006 C 
ATOM      6  C   UNL     1     150.511 165.790 186.722  0.00  0.00    -0.044 C 
ATOM      7  C   UNL     1     149.774 167.128 186.566  0.00  0.00    -0.026 C 
ATOM      8  C   UNL     1     148.509 166.952 185.714  0.00  0.00    +0.065 C 
ATOM      9  C   UNL     1     147.529 168.111 185.891  0.00  0.00    +0.071 C 
ATOM     10  C   UNL     1     146.169 167.645 185.447  0.00  0.00    +0.310 C 
ATOM     11  O   UNL     1     145.897 167.343 184.290  0.00  0.00    -0.251 OA
ATOM     12  O   UNL     1     145.327 167.526 186.512  0.00  0.00    -0.461 OA
ATOM     13  C   UNL     1     144.128 166.744 186.289  0.00  0.00    +0.110 C 
ATOM     14  C   UNL     1     143.110 167.067 187.417  0.00  0.00    +0.020 C 
ATOM     15  C   UNL     1     142.821 168.599 187.486  0.00  0.00    +0.068 C 
ATOM     16  C   UNL     1     141.999 169.022 188.730  0.00  0.00    -0.008 C 
ATOM     17  C   UNL     1     142.617 168.533 190.005  0.00  0.00    -0.077 C 
ATOM     18  C   UNL     1     141.984 167.806 190.943  0.00  0.00    -0.003 C 
ATOM     19  C   UNL     1     142.716 167.270 192.039  0.00  0.00    +0.220 A 
ATOM     20  N   UNL     1     144.029 167.084 192.073  0.00  0.00    -0.205 NA
ATOM     21  C   UNL     1     144.292 166.558 193.311  0.00  0.00    +0.164 A 
ATOM     22  C   UNL     1     143.126 166.420 194.012  0.00  0.00    +0.125 A 
ATOM     23  O   UNL     1     142.108 166.840 193.207  0.00  0.00    -0.443 OA
ATOM     24  C   UNL     1     145.716 166.178 193.818  0.00  0.00    +0.250 A 
ATOM     25  N   UNL     1     146.789 166.237 193.049  0.00  0.00    -0.203 NA
ATOM     26  C   UNL     1     147.817 165.861 193.874  0.00  0.00    +0.164 A 
ATOM     27  C   UNL     1     147.328 165.573 195.125  0.00  0.00    +0.125 A 
ATOM     28  O   UNL     1     145.978 165.746 195.100  0.00  0.00    -0.442 OA
ATOM     29  C   UNL     1     149.317 165.789 193.461  0.00  0.00    +0.249 A 
ATOM     30  N   UNL     1     149.753 166.053 192.241  0.00  0.00    -0.212 NA
ATOM     31  C   UNL     1     151.120 165.901 192.311  0.00  0.00    +0.083 A 
ATOM     32  C   UNL     1     151.459 165.547 193.597  0.00  0.00    +0.116 A 
ATOM     33  O   UNL     1     150.321 165.461 194.338  0.00  0.00    -0.442 OA
ATOM     34  H   UNL     1     152.333 167.224 191.224  0.00  0.00    +0.037 HD
ATOM     35  H   UNL     1     151.036 164.968 189.594  0.00  0.00    +0.035 HD
ATOM     36  H   UNL     1     150.262 166.540 189.823  0.00  0.00    +0.035 HD
ATOM     37  H   UNL     1     152.548 166.481 186.580  0.00  0.00    +0.034 HD
ATOM     38  H   UNL     1     152.373 164.940 187.409  0.00  0.00    +0.034 HD
ATOM     39  H   UNL     1     150.587 165.291 185.747  0.00  0.00    +0.027 HD
ATOM     40  H   UNL     1     149.914 165.129 187.363  0.00  0.00    +0.027 HD
ATOM     41  H   UNL     1     150.441 167.860 186.095  0.00  0.00    +0.029 HD
ATOM     42  H   UNL     1     149.512 167.501 187.561  0.00  0.00    +0.029 HD
ATOM     43  H   UNL     1     148.038 165.997 185.957  0.00  0.00    +0.060 HD
ATOM     44  H   UNL     1     147.805 168.986 185.291  0.00  0.00    +0.040 HD
ATOM     45  H   UNL     1     147.469 168.425 186.938  0.00  0.00    +0.040 HD
ATOM     46  H   UNL     1     143.684 167.048 185.332  0.00  0.00    +0.074 HD
ATOM     47  H   UNL     1     143.571 166.782 188.368  0.00  0.00    +0.036 HD
ATOM     48  H   UNL     1     143.782 169.129 187.528  0.00  0.00    +0.060 HD
ATOM     49  H   UNL     1     140.960 168.688 188.630  0.00  0.00    +0.033 HD
ATOM     50  H   UNL     1     141.943 170.117 188.772  0.00  0.00    +0.033 HD
ATOM     51  H   UNL     1     143.682 168.746 190.124  0.00  0.00    +0.057 HD
ATOM     52  H   UNL     1     140.922 167.608 190.891  0.00  0.00    +0.067 HD
ATOM     53  H   UNL     1     142.854 166.040 194.983  0.00  0.00    +0.105 HD
ATOM     54  H   UNL     1     147.762 165.248 196.059  0.00  0.00    +0.105 HD
ATOM     55  H   UNL     1     152.386 165.347 194.114  0.00  0.00    +0.105 HD
ENDROOT
BRANCH   1  56
ATOM     56  C   UNL     1     153.247 165.289 191.114  0.00  0.00    -0.056 C 
ATOM     57  H   UNL     1     154.005 165.658 191.813  0.00  0.00    +0.024 HD
ATOM     58  H   UNL     1     153.711 165.264 190.124  0.00  0.00    +0.024 HD
ATOM     59  H   UNL     1     153.001 164.260 191.401  0.00  0.00    +0.024 HD
ENDBRANCH   1  56
BRANCH  14  60
ATOM     60  C   UNL     1     141.819 166.251 187.248  0.00  0.00    -0.057 C 
ATOM     61  H   UNL     1     141.047 166.576 187.950  0.00  0.00    +0.023 HD
ATOM     62  H   UNL     1     141.990 165.181 187.394  0.00  0.00    +0.023 HD
ATOM     63  H   UNL     1     141.418 166.362 186.236  0.00  0.00    +0.023 HD
ENDBRANCH  14  60
BRANCH  13  64
ATOM     64  C   UNL     1     144.512 165.245 186.205  0.00  0.00    +0.011 C 
ATOM     65  H   UNL     1     144.782 165.051 185.163  0.00  0.00    +0.033 HD
ATOM     66  H   UNL     1     143.629 164.630 186.411  0.00  0.00    +0.033 HD
BRANCH  64  67
ATOM     67  C   UNL     1     145.688 164.781 187.102  0.00  0.00    +0.064 C 
ATOM     68  H   UNL     1     146.608 165.264 186.748  0.00  0.00    +0.060 HD
BRANCH  67  69
ATOM     69  C   UNL     1     145.462 165.209 188.588  0.00  0.00    -0.017 C 
ATOM     70  H   UNL     1     144.576 165.858 188.609  0.00  0.00    +0.032 HD
BRANCH  69  71
ATOM     71  C   UNL     1     145.187 164.012 189.507  0.00  0.00    -0.060 C 
ATOM     72  H   UNL     1     145.814 163.152 189.248  0.00  0.00    +0.023 HD
ATOM     73  H   UNL     1     144.141 163.695 189.466  0.00  0.00    +0.023 HD
ATOM     74  H   UNL     1     145.371 164.268 190.552  0.00  0.00    +0.023 HD
ENDBRANCH  69  71
BRANCH  69  75
ATOM     75  C   UNL     1     146.666 166.041 189.101  0.00  0.00    -0.041 C 
ATOM     76  H   UNL     1     147.359 166.181 188.261  0.00  0.00    +0.027 HD
ATOM     77  H   UNL     1     147.217 165.487 189.870  0.00  0.00    +0.027 HD
BRANCH  75  78
ATOM     78  C   UNL     1     146.296 167.437 189.612  0.00  0.00    +0.007 C 
ATOM     79  H   UNL     1     145.709 167.953 188.844  0.00  0.00    +0.034 HD
ATOM     80  H   UNL     1     145.667 167.353 190.505  0.00  0.00    +0.034 HD
BRANCH  78  81
ATOM     81  C   UNL     1     147.482 168.346 189.915  0.00  0.00    +0.140 C 
ATOM     82  O   UNL     1     148.566 168.229 189.339  0.00  0.00    -0.297 OA
BRANCH  81  83
ATOM     83  C   UNL     1     147.253 169.413 190.978  0.00  0.00    +0.052 C 
ATOM     84  H   UNL     1     146.237 169.294 191.369  0.00  0.00    +0.041 HD
BRANCH  83  85
ATOM     85  C   UNL     1     148.225 169.162 192.135  0.00  0.00    -0.052 C 
ATOM     86  H   UNL     1     148.848 170.039 192.327  0.00  0.00    +0.024 HD
ATOM     87  H   UNL     1     147.694 168.928 193.061  0.00  0.00    +0.024 HD
ATOM     88  H   UNL     1     148.882 168.315 191.914  0.00  0.00    +0.024 HD
ENDBRANCH  83  85
BRANCH  83  89
ATOM     89  C   UNL     1     147.413 170.846 190.417  0.00  0.00    +0.118 C 
ATOM     90  H   UNL     1     148.243 170.855 189.702  0.00  0.00    +0.075 HD
BRANCH  89  91
ATOM     91  C   UNL     1     146.154 171.385 189.677  0.00  0.00    +0.014 C 
ATOM     92  H   UNL     1     146.246 172.470 189.666  0.00  0.00    +0.038 HD
BRANCH  91  93
ATOM     93  C   UNL     1     144.870 171.053 190.446  0.00  0.00    -0.056 C 
ATOM     94  H   UNL     1     144.986 171.195 191.528  0.00  0.00    +0.024 HD
ATOM     95  H   UNL     1     144.576 170.011 190.278  0.00  0.00    +0.024 HD
ATOM     96  H   UNL     1     144.044 171.689 190.107  0.00  0.00    +0.024 HD
ENDBRANCH  91  93
BRANCH  91  97
ATOM     97  C   UNL     1     146.040 170.858 188.263  0.00  0.00    -0.064 C 
ATOM     98  C   UNL     1     145.689 171.500 187.139  0.00  0.00    -0.010 C 
ATOM     99  H   UNL     1     146.356 169.819 188.148  0.00  0.00    +0.059 HD
ATOM    100  H   UNL     1     145.802 170.938 186.212  0.00  0.00    +0.078 HD
BRANCH  98 101
ATOM    101  N   UNL     1     145.245 172.788 186.884  0.00  0.00    -0.317 N 
BRANCH 101 102
ATOM    102  C   UNL     1     143.900 173.201 187.301  0.00  0.00    +0.002 C 
ATOM    103  H   UNL     1     143.129 172.653 186.743  0.00  0.00    +0.043 HD
ATOM    104  H   UNL     1     143.744 174.270 187.111  0.00  0.00    +0.043 HD
ATOM    105  H   UNL     1     143.754 173.004 188.368  0.00  0.00    +0.043 HD
ENDBRANCH 101 102
BRANCH 101 106
ATOM    106  C   UNL     1     146.106 173.903 186.511  0.00  0.00    +0.110 C 
ATOM    107  H   UNL     1     145.619 174.874 186.553  0.00  0.00    +0.077 HD
ATOM    108  H   UNL     1     147.001 173.948 187.138  0.00  0.00    +0.077 HD
BRANCH 106 109
ATOM    109  O   UNL     1     146.493 173.692 185.167  0.00  0.00    -0.377 OA
ATOM    110  H   UNL     1     146.813 174.576 184.912  0.00  0.00    +0.211 HD
ENDBRANCH 106 109
ENDBRANCH 101 106
ENDBRANCH  98 101
ENDBRANCH  91  97
ENDBRANCH  89  91
BRANCH  89 111
ATOM    111  O   UNL     1     147.697 171.718 191.545  0.00  0.00    -0.460 OA
BRANCH 111 112
ATOM    112  C   UNL     1     148.561 172.748 191.342  0.00  0.00    +0.304 C 
ATOM    113  O   UNL     1     148.871 173.227 190.261  0.00  0.00    -0.251 OA
BRANCH 112 114
ATOM    114  C   UNL     1     149.097 173.223 192.658  0.00  0.00    +0.033 C 
ATOM    115  H   UNL     1     148.273 173.374 193.360  0.00  0.00    +0.034 HD
ATOM    116  H   UNL     1     149.661 174.148 192.516  0.00  0.00    +0.034 HD
ATOM    117  H   UNL     1     149.771 172.464 193.069  0.00  0.00    +0.034 HD
ENDBRANCH 112 114
ENDBRANCH 111 112
ENDBRANCH  89 111
ENDBRANCH  83  89
ENDBRANCH  81  83
ENDBRANCH  78  81
ENDBRANCH  75  78
ENDBRANCH  69  75
ENDBRANCH  67  69
BRANCH  67 118
ATOM    118  O   UNL     1     145.810 163.358 187.046  0.00  0.00    -0.379 OA
BRANCH 118 119
ATOM    119  C   UNL     1     146.954 162.910 186.324  0.00  0.00    +0.037 C 
ATOM    120  H   UNL     1     146.778 161.915 185.907  0.00  0.00    +0.052 HD
ATOM    121  H   UNL     1     147.218 163.609 185.525  0.00  0.00    +0.052 HD
ATOM    122  H   UNL     1     147.794 162.849 187.022  0.00  0.00    +0.052 HD
ENDBRANCH 118 119
ENDBRANCH  67 118
ENDBRANCH  64  67
ENDBRANCH  13  64
BRANCH   8 123
ATOM    123  O   UNL     1     148.921 166.890 184.345  0.00  0.00    -0.391 OA
ATOM    124  H   UNL     1     149.048 167.813 184.044  0.00  0.00    +0.210 HD
ENDBRANCH   8 123
BRANCH  15 125
ATOM    125  O   UNL     1     142.113 168.976 186.296  0.00  0.00    -0.379 OA
BRANCH 125 126
ATOM    126  C   UNL     1     142.725 170.063 185.609  0.00  0.00    +0.037 C 
ATOM    127  H   UNL     1     141.967 170.658 185.087  0.00  0.00    +0.052 HD
ATOM    128  H   UNL     1     143.219 170.699 186.347  0.00  0.00    +0.052 HD
ATOM    129  H   UNL     1     143.478 169.705 184.900  0.00  0.00    +0.052 HD
ENDBRANCH 125 126
ENDBRANCH  15 125
TORSDOF 27
ENDMDL
MODEL 9
REMARK VINA RESULT:      -5.4      2.032      5.424
REMARK  Name = Ulapualide A_conf1
REMARK  27 active torsions:
REMARK  status: ('A' for Active; 'I' for Inactive)
REMARK    1  A    between atoms: C_1  and  C_2
REMARK    2  A    between atoms: C_9  and  O_63
REMARK    3  A    between atoms: C_14  and  C_38
REMARK    4  A    between atoms: C_15  and  C_37
REMARK    5  A    between atoms: C_16  and  O_35
REMARK    6  A    between atoms: O_35  and  C_36
REMARK    7  A    between atoms: C_38  and  C_39
REMARK    8  A    between atoms: C_39  and  C_40
REMARK    9  A    between atoms: C_39  and  O_61
REMARK   10  A    between atoms: C_40  and  C_41
REMARK   11  A    between atoms: C_40  and  C_42
REMARK   12  A    between atoms: C_42  and  C_43
REMARK   13  A    between atoms: C_43  and  C_44
REMARK   14  A    between atoms: C_44  and  C_46
REMARK   15  A    between atoms: C_46  and  C_47
REMARK   16  A    between atoms: C_46  and  C_48
REMARK   17  A    between atoms: C_48  and  C_49
REMARK   18  A    between atoms: C_48  and  O_57
REMARK   19  A    between atoms: C_49  and  C_50
REMARK   20  A    between atoms: C_49  and  C_51
REMARK   21  A    between atoms: C_52  and  N_53
REMARK   22  A    between atoms: N_53  and  C_54
REMARK   23  A    between atoms: N_53  and  C_55
REMARK   24  A    between atoms: C_55  and  O_56
REMARK   25  A    between atoms: O_57  and  C_58
REMARK   26  A    between atoms: C_58  and  C_60
REMARK   27  A    between atoms: O_61  and  C_62
REMARK                            x       y       z     vdW  Elec       q    Type
REMARK                         _______ _______ _______ _____ _____    ______ ____
ROOT
ATOM      1  C   UNL     1     147.204 171.805 191.850  0.00  0.00    +0.008 C 
ATOM      2  C   UNL     1     146.547 171.504 190.487  0.00  0.00    +0.014 C 
ATOM      3  C   UNL     1     145.085 171.899 190.469  0.00  0.00    +0.134 C 
ATOM      4  O   UNL     1     144.368 171.766 191.463  0.00  0.00    -0.297 OA
ATOM      5  C   UNL     1     144.516 172.473 189.187  0.00  0.00    +0.006 C 
ATOM      6  C   UNL     1     144.622 171.552 187.978  0.00  0.00    -0.044 C 
ATOM      7  C   UNL     1     143.958 170.183 188.186  0.00  0.00    -0.026 C 
ATOM      8  C   UNL     1     143.826 169.437 186.850  0.00  0.00    +0.065 C 
ATOM      9  C   UNL     1     143.593 167.941 187.046  0.00  0.00    +0.071 C 
ATOM     10  C   UNL     1     143.966 167.238 185.769  0.00  0.00    +0.310 C 
ATOM     11  O   UNL     1     143.365 167.385 184.710  0.00  0.00    -0.251 OA
ATOM     12  O   UNL     1     145.099 166.498 185.937  0.00  0.00    -0.461 OA
ATOM     13  C   UNL     1     145.770 166.081 184.723  0.00  0.00    +0.110 C 
ATOM     14  C   UNL     1     146.747 164.924 185.070  0.00  0.00    +0.020 C 
ATOM     15  C   UNL     1     145.996 163.751 185.771  0.00  0.00    +0.068 C 
ATOM     16  C   UNL     1     146.938 162.667 186.354  0.00  0.00    -0.008 C 
ATOM     17  C   UNL     1     147.980 163.255 187.258  0.00  0.00    -0.077 C 
ATOM     18  C   UNL     1     149.306 163.069 187.133  0.00  0.00    -0.003 C 
ATOM     19  C   UNL     1     150.205 163.802 187.959  0.00  0.00    +0.220 A 
ATOM     20  N   UNL     1     149.921 164.929 188.598  0.00  0.00    -0.205 NA
ATOM     21  C   UNL     1     151.070 165.270 189.264  0.00  0.00    +0.164 A 
ATOM     22  C   UNL     1     152.044 164.346 189.009  0.00  0.00    +0.125 A 
ATOM     23  O   UNL     1     151.522 163.419 188.155  0.00  0.00    -0.443 OA
ATOM     24  C   UNL     1     151.218 166.531 190.168  0.00  0.00    +0.250 A 
ATOM     25  N   UNL     1     150.268 167.443 190.286  0.00  0.00    -0.203 NA
ATOM     26  C   UNL     1     150.777 168.347 191.182  0.00  0.00    +0.164 A 
ATOM     27  C   UNL     1     152.035 167.957 191.573  0.00  0.00    +0.125 A 
ATOM     28  O   UNL     1     152.344 166.807 190.912  0.00  0.00    -0.442 OA
ATOM     29  C   UNL     1     150.033 169.616 191.694  0.00  0.00    +0.249 A 
ATOM     30  N   UNL     1     148.830 169.975 191.281  0.00  0.00    -0.212 NA
ATOM     31  C   UNL     1     148.536 171.118 191.992  0.00  0.00    +0.083 A 
ATOM     32  C   UNL     1     149.596 171.405 192.822  0.00  0.00    +0.116 A 
ATOM     33  O   UNL     1     150.561 170.465 192.636  0.00  0.00    -0.442 OA
ATOM     34  H   UNL     1     146.566 171.410 192.652  0.00  0.00    +0.037 HD
ATOM     35  H   UNL     1     147.080 172.033 189.689  0.00  0.00    +0.035 HD
ATOM     36  H   UNL     1     146.579 170.434 190.251  0.00  0.00    +0.035 HD
ATOM     37  H   UNL     1     143.465 172.728 189.365  0.00  0.00    +0.034 HD
ATOM     38  H   UNL     1     145.040 173.414 188.987  0.00  0.00    +0.034 HD
ATOM     39  H   UNL     1     144.162 172.063 187.122  0.00  0.00    +0.027 HD
ATOM     40  H   UNL     1     145.676 171.398 187.717  0.00  0.00    +0.027 HD
ATOM     41  H   UNL     1     142.966 170.322 188.634  0.00  0.00    +0.029 HD
ATOM     42  H   UNL     1     144.566 169.601 188.886  0.00  0.00    +0.029 HD
ATOM     43  H   UNL     1     144.717 169.621 186.243  0.00  0.00    +0.060 HD
ATOM     44  H   UNL     1     142.547 167.707 187.273  0.00  0.00    +0.040 HD
ATOM     45  H   UNL     1     144.211 167.544 187.858  0.00  0.00    +0.040 HD
ATOM     46  H   UNL     1     145.020 165.695 184.022  0.00  0.00    +0.074 HD
ATOM     47  H   UNL     1     147.478 165.315 185.786  0.00  0.00    +0.036 HD
ATOM     48  H   UNL     1     145.411 164.165 186.604  0.00  0.00    +0.060 HD
ATOM     49  H   UNL     1     147.389 162.081 185.544  0.00  0.00    +0.033 HD
ATOM     50  H   UNL     1     146.347 161.946 186.932  0.00  0.00    +0.033 HD
ATOM     51  H   UNL     1     147.606 163.932 188.028  0.00  0.00    +0.057 HD
ATOM     52  H   UNL     1     149.721 162.376 186.415  0.00  0.00    +0.067 HD
ATOM     53  H   UNL     1     153.078 164.222 189.288  0.00  0.00    +0.105 HD
ATOM     54  H   UNL     1     152.784 168.353 192.243  0.00  0.00    +0.105 HD
ATOM     55  H   UNL     1     149.804 172.170 193.556  0.00  0.00    +0.105 HD
ENDROOT
BRANCH   1  56
ATOM     56  C   UNL     1     147.324 173.322 192.050  0.00  0.00    -0.056 C 
ATOM     57  H   UNL     1     147.230 173.593 193.108  0.00  0.00    +0.024 HD
ATOM     58  H   UNL     1     146.537 173.857 191.513  0.00  0.00    +0.024 HD
ATOM     59  H   UNL     1     148.293 173.695 191.697  0.00  0.00    +0.024 HD
ENDBRANCH   1  56
BRANCH  14  60
ATOM     60  C   UNL     1     147.508 164.450 183.822  0.00  0.00    -0.057 C 
ATOM     61  H   UNL     1     146.830 164.013 183.084  0.00  0.00    +0.023 HD
ATOM     62  H   UNL     1     148.274 163.709 184.068  0.00  0.00    +0.023 HD
ATOM     63  H   UNL     1     148.030 165.284 183.344  0.00  0.00    +0.023 HD
ENDBRANCH  14  60
BRANCH  13  64
ATOM     64  C   UNL     1     146.462 167.311 184.081  0.00  0.00    +0.011 C 
ATOM     65  H   UNL     1     145.759 167.714 183.345  0.00  0.00    +0.033 HD
ATOM     66  H   UNL     1     147.340 166.982 183.515  0.00  0.00    +0.033 HD
BRANCH  64  67
ATOM     67  C   UNL     1     146.863 168.458 185.043  0.00  0.00    +0.064 C 
ATOM     68  H   UNL     1     145.949 168.911 185.446  0.00  0.00    +0.060 HD
BRANCH  67  69
ATOM     69  C   UNL     1     147.701 167.915 186.245  0.00  0.00    -0.017 C 
ATOM     70  H   UNL     1     147.501 166.837 186.321  0.00  0.00    +0.032 HD
BRANCH  69  71
ATOM     71  C   UNL     1     149.211 168.096 186.037  0.00  0.00    -0.060 C 
ATOM     72  H   UNL     1     149.777 167.248 186.437  0.00  0.00    +0.023 HD
ATOM     73  H   UNL     1     149.584 169.008 186.510  0.00  0.00    +0.023 HD
ATOM     74  H   UNL     1     149.452 168.198 184.977  0.00  0.00    +0.023 HD
ENDBRANCH  69  71
BRANCH  69  75
ATOM     75  C   UNL     1     147.237 168.574 187.569  0.00  0.00    -0.041 C 
ATOM     76  H   UNL     1     146.140 168.560 187.585  0.00  0.00    +0.027 HD
ATOM     77  H   UNL     1     147.537 169.628 187.600  0.00  0.00    +0.027 HD
BRANCH  75  78
ATOM     78  C   UNL     1     147.710 167.848 188.834  0.00  0.00    +0.007 C 
ATOM     79  H   UNL     1     148.580 167.232 188.586  0.00  0.00    +0.034 HD
ATOM     80  H   UNL     1     148.028 168.579 189.586  0.00  0.00    +0.034 HD
BRANCH  78  81
ATOM     81  C   UNL     1     146.687 166.902 189.454  0.00  0.00    +0.140 C 
ATOM     82  O   UNL     1     146.269 165.905 188.861  0.00  0.00    -0.297 OA
BRANCH  81  83
ATOM     83  C   UNL     1     146.206 167.260 190.854  0.00  0.00    +0.052 C 
ATOM     84  H   UNL     1     147.012 167.797 191.365  0.00  0.00    +0.041 HD
BRANCH  83  85
ATOM     85  C   UNL     1     145.020 168.222 190.728  0.00  0.00    -0.052 C 
ATOM     86  H   UNL     1     145.341 169.203 190.372  0.00  0.00    +0.024 HD
ATOM     87  H   UNL     1     144.272 167.846 190.024  0.00  0.00    +0.024 HD
ATOM     88  H   UNL     1     144.521 168.352 191.693  0.00  0.00    +0.024 HD
ENDBRANCH  83  85
BRANCH  83  89
ATOM     89  C   UNL     1     145.825 166.011 191.683  0.00  0.00    +0.118 C 
ATOM     90  H   UNL     1     145.864 165.130 191.032  0.00  0.00    +0.075 HD
BRANCH  89  91
ATOM     91  C   UNL     1     146.765 165.739 192.893  0.00  0.00    +0.014 C 
ATOM     92  H   UNL     1     147.326 164.838 192.650  0.00  0.00    +0.038 HD
BRANCH  91  93
ATOM     93  C   UNL     1     145.964 165.436 194.164  0.00  0.00    -0.056 C 
ATOM     94  H   UNL     1     145.007 165.972 194.190  0.00  0.00    +0.024 HD
ATOM     95  H   UNL     1     146.531 165.725 195.057  0.00  0.00    +0.024 HD
ATOM     96  H   UNL     1     145.754 164.363 194.239  0.00  0.00    +0.024 HD
ENDBRANCH  91  93
BRANCH  91  97
ATOM     97  C   UNL     1     147.714 166.887 193.161  0.00  0.00    -0.064 C 
ATOM     98  C   UNL     1     148.832 166.914 193.902  0.00  0.00    -0.010 C 
ATOM     99  H   UNL     1     147.475 167.800 192.614  0.00  0.00    +0.059 HD
ATOM    100  H   UNL     1     149.423 167.829 193.844  0.00  0.00    +0.078 HD
BRANCH  98 101
ATOM    101  N   UNL     1     149.452 165.978 194.715  0.00  0.00    -0.317 N 
BRANCH 101 102
ATOM    102  C   UNL     1     150.729 165.380 194.311  0.00  0.00    +0.002 C 
ATOM    103  H   UNL     1     151.513 166.144 194.227  0.00  0.00    +0.043 HD
ATOM    104  H   UNL     1     150.639 164.893 193.332  0.00  0.00    +0.043 HD
ATOM    105  H   UNL     1     151.053 164.638 195.048  0.00  0.00    +0.043 HD
ENDBRANCH 101 102
BRANCH 101 106
ATOM    106  C   UNL     1     149.118 165.745 196.115  0.00  0.00    +0.110 C 
ATOM    107  H   UNL     1     148.291 166.349 196.481  0.00  0.00    +0.077 HD
ATOM    108  H   UNL     1     148.876 164.695 196.301  0.00  0.00    +0.077 HD
BRANCH 106 109
ATOM    109  O   UNL     1     150.257 166.099 196.874  0.00  0.00    -0.377 OA
ATOM    110  H   UNL     1     150.881 166.374 196.178  0.00  0.00    +0.211 HD
ENDBRANCH 106 109
ENDBRANCH 101 106
ENDBRANCH  98 101
ENDBRANCH  91  97
ENDBRANCH  89  91
BRANCH  89 111
ATOM    111  O   UNL     1     144.476 166.222 192.181  0.00  0.00    -0.460 OA
BRANCH 111 112
ATOM    112  C   UNL     1     143.476 165.491 191.621  0.00  0.00    +0.304 C 
ATOM    113  O   UNL     1     143.523 164.909 190.548  0.00  0.00    -0.251 OA
BRANCH 112 114
ATOM    114  C   UNL     1     142.279 165.502 192.521  0.00  0.00    +0.033 C 
ATOM    115  H   UNL     1     142.102 164.497 192.913  0.00  0.00    +0.034 HD
ATOM    116  H   UNL     1     141.407 165.865 191.973  0.00  0.00    +0.034 HD
ATOM    117  H   UNL     1     142.466 166.176 193.364  0.00  0.00    +0.034 HD
ENDBRANCH 112 114
ENDBRANCH 111 112
ENDBRANCH  89 111
ENDBRANCH  83  89
ENDBRANCH  81  83
ENDBRANCH  78  81
ENDBRANCH  75  78
ENDBRANCH  69  75
ENDBRANCH  67  69
BRANCH  67 118
ATOM    118  O   UNL     1     147.642 169.430 184.341  0.00  0.00    -0.379 OA
BRANCH 118 119
ATOM    119  C   UNL     1     147.101 170.748 184.401  0.00  0.00    +0.037 C 
ATOM    120  H   UNL     1     146.089 170.729 184.813  0.00  0.00    +0.052 HD
ATOM    121  H   UNL     1     147.736 171.410 184.997  0.00  0.00    +0.052 HD
ATOM    122  H   UNL     1     147.052 171.141 183.381  0.00  0.00    +0.052 HD
ENDBRANCH 118 119
ENDBRANCH  67 118
ENDBRANCH  64  67
ENDBRANCH  13  64
BRANCH   8 123
ATOM    123  O   UNL     1     142.710 170.000 186.155  0.00  0.00    -0.391 OA
ATOM    124  H   UNL     1     142.639 169.526 185.301  0.00  0.00    +0.210 HD
ENDBRANCH   8 123
BRANCH  15 125
ATOM    125  O   UNL     1     145.112 163.149 184.814  0.00  0.00    -0.379 OA
BRANCH 125 126
ATOM    126  C   UNL     1     143.793 162.964 185.318  0.00  0.00    +0.037 C 
ATOM    127  H   UNL     1     143.138 163.773 184.976  0.00  0.00    +0.052 HD
ATOM    128  H   UNL     1     143.408 162.018 184.929  0.00  0.00    +0.052 HD
ATOM    129  H   UNL     1     143.794 162.915 186.412  0.00  0.00    +0.052 HD
ENDBRANCH 125 126
ENDBRANCH  15 125
TORSDOF 27
ENDMDL
MODEL 10
REMARK VINA RESULT:      -5.4      2.166      6.386
REMARK  Name = Ulapualide A_conf1
REMARK  27 active torsions:
REMARK  status: ('A' for Active; 'I' for Inactive)
REMARK    1  A    between atoms: C_1  and  C_2
REMARK    2  A    between atoms: C_9  and  O_63
REMARK    3  A    between atoms: C_14  and  C_38
REMARK    4  A    between atoms: C_15  and  C_37
REMARK    5  A    between atoms: C_16  and  O_35
REMARK    6  A    between atoms: O_35  and  C_36
REMARK    7  A    between atoms: C_38  and  C_39
REMARK    8  A    between atoms: C_39  and  C_40
REMARK    9  A    between atoms: C_39  and  O_61
REMARK   10  A    between atoms: C_40  and  C_41
REMARK   11  A    between atoms: C_40  and  C_42
REMARK   12  A    between atoms: C_42  and  C_43
REMARK   13  A    between atoms: C_43  and  C_44
REMARK   14  A    between atoms: C_44  and  C_46
REMARK   15  A    between atoms: C_46  and  C_47
REMARK   16  A    between atoms: C_46  and  C_48
REMARK   17  A    between atoms: C_48  and  C_49
REMARK   18  A    between atoms: C_48  and  O_57
REMARK   19  A    between atoms: C_49  and  C_50
REMARK   20  A    between atoms: C_49  and  C_51
REMARK   21  A    between atoms: C_52  and  N_53
REMARK   22  A    between atoms: N_53  and  C_54
REMARK   23  A    between atoms: N_53  and  C_55
REMARK   24  A    between atoms: C_55  and  O_56
REMARK   25  A    between atoms: O_57  and  C_58
REMARK   26  A    between atoms: C_58  and  C_60
REMARK   27  A    between atoms: O_61  and  C_62
REMARK                            x       y       z     vdW  Elec       q    Type
REMARK                         _______ _______ _______ _____ _____    ______ ____
ROOT
ATOM      1  C   UNL     1     149.877 166.425 193.985  0.00  0.00    +0.008 C 
ATOM      2  C   UNL     1     150.410 165.889 192.640  0.00  0.00    +0.014 C 
ATOM      3  C   UNL     1     151.804 166.403 192.343  0.00  0.00    +0.134 C 
ATOM      4  O   UNL     1     152.150 167.545 192.653  0.00  0.00    -0.297 OA
ATOM      5  C   UNL     1     152.777 165.470 191.652  0.00  0.00    +0.006 C 
ATOM      6  C   UNL     1     152.314 164.969 190.288  0.00  0.00    -0.044 C 
ATOM      7  C   UNL     1     151.995 166.094 189.294  0.00  0.00    -0.026 C 
ATOM      8  C   UNL     1     151.843 165.533 187.873  0.00  0.00    +0.065 C 
ATOM      9  C   UNL     1     151.108 166.500 186.947  0.00  0.00    +0.071 C 
ATOM     10  C   UNL     1     150.575 165.715 185.779  0.00  0.00    +0.310 C 
ATOM     11  O   UNL     1     151.287 165.163 184.948  0.00  0.00    -0.251 OA
ATOM     12  O   UNL     1     149.215 165.635 185.830  0.00  0.00    -0.461 OA
ATOM     13  C   UNL     1     148.607 164.616 184.999  0.00  0.00    +0.110 C 
ATOM     14  C   UNL     1     147.096 164.941 184.842  0.00  0.00    +0.020 C 
ATOM     15  C   UNL     1     146.892 166.379 184.270  0.00  0.00    +0.068 C 
ATOM     16  C   UNL     1     145.419 166.859 184.304  0.00  0.00    -0.008 C 
ATOM     17  C   UNL     1     144.818 166.734 185.672  0.00  0.00    -0.077 C 
ATOM     18  C   UNL     1     143.677 166.083 185.959  0.00  0.00    -0.003 C 
ATOM     19  C   UNL     1     143.286 165.902 187.316  0.00  0.00    +0.220 A 
ATOM     20  N   UNL     1     144.091 165.974 188.367  0.00  0.00    -0.205 NA
ATOM     21  C   UNL     1     143.292 165.740 189.457  0.00  0.00    +0.164 A 
ATOM     22  C   UNL     1     142.007 165.515 189.047  0.00  0.00    +0.125 A 
ATOM     23  O   UNL     1     141.989 165.584 187.685  0.00  0.00    -0.443 OA
ATOM     24  C   UNL     1     143.799 165.732 190.930  0.00  0.00    +0.250 A 
ATOM     25  N   UNL     1     145.077 165.850 191.249  0.00  0.00    -0.203 NA
ATOM     26  C   UNL     1     145.086 165.830 192.619  0.00  0.00    +0.164 A 
ATOM     27  C   UNL     1     143.804 165.686 193.092  0.00  0.00    +0.125 A 
ATOM     28  O   UNL     1     142.968 165.596 192.020  0.00  0.00    -0.442 OA
ATOM     29  C   UNL     1     146.358 165.966 193.508  0.00  0.00    +0.249 A 
ATOM     30  N   UNL     1     147.582 166.081 193.021  0.00  0.00    -0.212 NA
ATOM     31  C   UNL     1     148.395 166.204 194.126  0.00  0.00    +0.083 A 
ATOM     32  C   UNL     1     147.611 166.159 195.257  0.00  0.00    +0.116 A 
ATOM     33  O   UNL     1     146.314 165.997 194.880  0.00  0.00    -0.442 OA
ATOM     34  H   UNL     1     150.033 167.511 194.027  0.00  0.00    +0.037 HD
ATOM     35  H   UNL     1     150.416 164.794 192.648  0.00  0.00    +0.035 HD
ATOM     36  H   UNL     1     149.780 166.208 191.800  0.00  0.00    +0.035 HD
ATOM     37  H   UNL     1     153.734 165.992 191.547  0.00  0.00    +0.034 HD
ATOM     38  H   UNL     1     152.951 164.621 192.322  0.00  0.00    +0.034 HD
ATOM     39  H   UNL     1     153.104 164.324 189.880  0.00  0.00    +0.027 HD
ATOM     40  H   UNL     1     151.426 164.336 190.405  0.00  0.00    +0.027 HD
ATOM     41  H   UNL     1     152.798 166.841 189.316  0.00  0.00    +0.029 HD
ATOM     42  H   UNL     1     151.068 166.586 189.608  0.00  0.00    +0.029 HD
ATOM     43  H   UNL     1     151.335 164.567 187.917  0.00  0.00    +0.060 HD
ATOM     44  H   UNL     1     151.764 167.288 186.560  0.00  0.00    +0.040 HD
ATOM     45  H   UNL     1     150.268 166.982 187.459  0.00  0.00    +0.040 HD
ATOM     46  H   UNL     1     149.069 164.652 184.005  0.00  0.00    +0.074 HD
ATOM     47  H   UNL     1     146.650 164.925 185.842  0.00  0.00    +0.036 HD
ATOM     48  H   UNL     1     147.483 167.078 184.877  0.00  0.00    +0.060 HD
ATOM     49  H   UNL     1     144.828 166.323 183.552  0.00  0.00    +0.033 HD
ATOM     50  H   UNL     1     145.375 167.913 184.004  0.00  0.00    +0.033 HD
ATOM     51  H   UNL     1     145.408 167.160 186.486  0.00  0.00    +0.057 HD
ATOM     52  H   UNL     1     143.037 165.683 185.184  0.00  0.00    +0.067 HD
ATOM     53  H   UNL     1     141.077 165.273 189.535  0.00  0.00    +0.105 HD
ATOM     54  H   UNL     1     143.354 165.624 194.071  0.00  0.00    +0.105 HD
ATOM     55  H   UNL     1     147.798 166.232 196.318  0.00  0.00    +0.105 HD
ENDROOT
BRANCH   1  56
ATOM     56  C   UNL     1     150.658 165.794 195.146  0.00  0.00    -0.056 C 
ATOM     57  H   UNL     1     149.990 165.513 195.969  0.00  0.00    +0.024 HD
ATOM     58  H   UNL     1     151.393 166.491 195.556  0.00  0.00    +0.024 HD
ATOM     59  H   UNL     1     151.188 164.890 194.825  0.00  0.00    +0.024 HD
ENDBRANCH   1  56
BRANCH  14  60
ATOM     60  C   UNL     1     146.388 163.881 183.985  0.00  0.00    -0.057 C 
ATOM     61  H   UNL     1     146.267 162.942 184.532  0.00  0.00    +0.023 HD
ATOM     62  H   UNL     1     146.932 163.673 183.060  0.00  0.00    +0.023 HD
ATOM     63  H   UNL     1     145.393 164.224 183.685  0.00  0.00    +0.023 HD
ENDBRANCH  14  60
BRANCH  13  64
ATOM     64  C   UNL     1     148.884 163.225 185.626  0.00  0.00    +0.011 C 
ATOM     65  H   UNL     1     149.903 162.952 185.336  0.00  0.00    +0.033 HD
ATOM     66  H   UNL     1     148.226 162.480 185.164  0.00  0.00    +0.033 HD
BRANCH  64  67
ATOM     67  C   UNL     1     148.779 163.128 187.169  0.00  0.00    +0.064 C 
ATOM     68  H   UNL     1     149.612 163.688 187.611  0.00  0.00    +0.060 HD
BRANCH  67  69
ATOM     69  C   UNL     1     147.446 163.765 187.681  0.00  0.00    -0.017 C 
ATOM     70  H   UNL     1     146.953 164.227 186.814  0.00  0.00    +0.032 HD
BRANCH  69  71
ATOM     71  C   UNL     1     146.484 162.723 188.265  0.00  0.00    -0.060 C 
ATOM     72  H   UNL     1     145.550 162.673 187.696  0.00  0.00    +0.023 HD
ATOM     73  H   UNL     1     146.236 162.933 189.309  0.00  0.00    +0.023 HD
ATOM     74  H   UNL     1     146.936 161.729 188.268  0.00  0.00    +0.023 HD
ENDBRANCH  69  71
BRANCH  69  75
ATOM     75  C   UNL     1     147.744 164.888 188.707  0.00  0.00    -0.041 C 
ATOM     76  H   UNL     1     148.832 165.022 188.752  0.00  0.00    +0.027 HD
ATOM     77  H   UNL     1     147.425 164.586 189.712  0.00  0.00    +0.027 HD
BRANCH  75  78
ATOM     78  C   UNL     1     147.141 166.250 188.344  0.00  0.00    +0.007 C 
ATOM     79  H   UNL     1     147.110 166.346 187.254  0.00  0.00    +0.034 HD
ATOM     80  H   UNL     1     146.109 166.310 188.710  0.00  0.00    +0.034 HD
BRANCH  78  81
ATOM     81  C   UNL     1     147.925 167.456 188.852  0.00  0.00    +0.140 C 
ATOM     82  O   UNL     1     148.791 167.359 189.724  0.00  0.00    -0.297 OA
BRANCH  81  83
ATOM     83  C   UNL     1     147.576 168.796 188.217  0.00  0.00    +0.052 C 
ATOM     84  H   UNL     1     148.219 169.563 188.662  0.00  0.00    +0.041 HD
BRANCH  83  85
ATOM     85  C   UNL     1     147.910 168.726 186.723  0.00  0.00    -0.052 C 
ATOM     86  H   UNL     1     148.029 167.692 186.392  0.00  0.00    +0.024 HD
ATOM     87  H   UNL     1     147.120 169.177 186.115  0.00  0.00    +0.024 HD
ATOM     88  H   UNL     1     148.836 169.267 186.506  0.00  0.00    +0.024 HD
ENDBRANCH  83  85
BRANCH  83  89
ATOM     89  C   UNL     1     146.096 169.185 188.440  0.00  0.00    +0.118 C 
ATOM     90  H   UNL     1     145.460 168.347 188.133  0.00  0.00    +0.075 HD
BRANCH  89  91
ATOM     91  C   UNL     1     145.741 169.524 189.918  0.00  0.00    +0.014 C 
ATOM     92  H   UNL     1     146.351 168.867 190.537  0.00  0.00    +0.038 HD
BRANCH  91  93
ATOM     93  C   UNL     1     144.276 169.198 190.229  0.00  0.00    -0.056 C 
ATOM     94  H   UNL     1     143.813 169.949 190.881  0.00  0.00    +0.024 HD
ATOM     95  H   UNL     1     144.194 168.226 190.730  0.00  0.00    +0.024 HD
ATOM     96  H   UNL     1     143.690 169.144 189.305  0.00  0.00    +0.024 HD
ENDBRANCH  91  93
BRANCH  91  97
ATOM     97  C   UNL     1     146.017 170.971 190.265  0.00  0.00    -0.064 C 
ATOM     98  C   UNL     1     147.114 171.525 190.800  0.00  0.00    -0.010 C 
ATOM     99  H   UNL     1     145.222 171.659 189.971  0.00  0.00    +0.059 HD
ATOM    100  H   UNL     1     147.128 172.615 190.842  0.00  0.00    +0.078 HD
BRANCH  98 101
ATOM    101  N   UNL     1     148.302 170.999 191.281  0.00  0.00    -0.317 N 
BRANCH 101 102
ATOM    102  C   UNL     1     149.517 171.820 191.306  0.00  0.00    +0.002 C 
ATOM    103  H   UNL     1     149.416 172.652 192.016  0.00  0.00    +0.043 HD
ATOM    104  H   UNL     1     149.714 172.256 190.318  0.00  0.00    +0.043 HD
ATOM    105  H   UNL     1     150.380 171.217 191.607  0.00  0.00    +0.043 HD
ENDBRANCH 101 102
BRANCH 101 106
ATOM    106  C   UNL     1     148.408 169.782 192.076  0.00  0.00    +0.110 C 
ATOM    107  H   UNL     1     148.389 169.949 193.150  0.00  0.00    +0.077 HD
ATOM    108  H   UNL     1     147.612 169.072 191.832  0.00  0.00    +0.077 HD
BRANCH 106 109
ATOM    109  O   UNL     1     149.658 169.197 191.769  0.00  0.00    -0.377 OA
ATOM    110  H   UNL     1     149.395 168.461 191.188  0.00  0.00    +0.211 HD
ENDBRANCH 106 109
ENDBRANCH 101 106
ENDBRANCH  98 101
ENDBRANCH  91  97
ENDBRANCH  89  91
BRANCH  89 111
ATOM    111  O   UNL     1     145.833 170.356 187.620  0.00  0.00    -0.460 OA
BRANCH 111 112
ATOM    112  C   UNL     1     144.787 170.297 186.754  0.00  0.00    +0.304 C 
ATOM    113  O   UNL     1     143.700 169.784 186.971  0.00  0.00    -0.251 OA
BRANCH 112 114
ATOM    114  C   UNL     1     145.163 170.957 185.463  0.00  0.00    +0.033 C 
ATOM    115  H   UNL     1     144.819 171.994 185.463  0.00  0.00    +0.034 HD
ATOM    116  H   UNL     1     144.732 170.404 184.625  0.00  0.00    +0.034 HD
ATOM    117  H   UNL     1     146.254 170.952 185.359  0.00  0.00    +0.034 HD
ENDBRANCH 112 114
ENDBRANCH 111 112
ENDBRANCH  89 111
ENDBRANCH  83  89
ENDBRANCH  81  83
ENDBRANCH  78  81
ENDBRANCH  75  78
ENDBRANCH  69  75
ENDBRANCH  67  69
BRANCH  67 118
ATOM    118  O   UNL     1     148.818 161.757 187.573  0.00  0.00    -0.379 OA
BRANCH 118 119
ATOM    119  C   UNL     1     150.133 161.208 187.604  0.00  0.00    +0.037 C 
ATOM    120  H   UNL     1     150.879 162.003 187.680  0.00  0.00    +0.052 HD
ATOM    121  H   UNL     1     150.250 160.505 188.434  0.00  0.00    +0.052 HD
ATOM    122  H   UNL     1     150.297 160.667 186.667  0.00  0.00    +0.052 HD
ENDBRANCH 118 119
ENDBRANCH  67 118
ENDBRANCH  64  67
ENDBRANCH  13  64
BRANCH   8 123
ATOM    123  O   UNL     1     153.159 165.302 187.362  0.00  0.00    -0.391 OA
ATOM    124  H   UNL     1     153.641 164.786 188.040  0.00  0.00    +0.210 HD
ENDBRANCH   8 123
BRANCH  15 125
ATOM    125  O   UNL     1     147.367 166.394 182.916  0.00  0.00    -0.379 OA
BRANCH 125 126
ATOM    126  C   UNL     1     146.472 167.050 182.023  0.00  0.00    +0.037 C 
ATOM    127  H   UNL     1     146.616 168.135 182.070  0.00  0.00    +0.052 HD
ATOM    128  H   UNL     1     146.695 166.714 181.007  0.00  0.00    +0.052 HD
ATOM    129  H   UNL     1     145.432 166.796 182.253  0.00  0.00    +0.052 HD
ENDBRANCH 125 126
ENDBRANCH  15 125
TORSDOF 27
ENDMDL
