MODEL 1
REMARK VINA RESULT:      -5.5      0.000      0.000
REMARK  Name = Ulapualide A_conf2
REMARK  27 active torsions:
REMARK  status: ('A' for Active; 'I' for Inactive)
REMARK    1  A    between atoms: C_1  and  C_2
REMARK    2  A    between atoms: C_9  and  O_63
REMARK    3  A    between atoms: C_14  and  C_38
REMARK    4  A    between atoms: C_15  and  C_37
REMARK    5  A    between atoms: C_16  and  O_35
REMARK    6  A    between atoms: O_35  and  C_36
REMARK    7  A    between atoms: C_38  and  C_39
REMARK    8  A    between atoms: C_39  and  C_40
REMARK    9  A    between atoms: C_39  and  O_61
REMARK   10  A    between atoms: C_40  and  C_41
REMARK   11  A    between atoms: C_40  and  C_42
REMARK   12  A    between atoms: C_42  and  C_43
REMARK   13  A    between atoms: C_43  and  C_44
REMARK   14  A    between atoms: C_44  and  C_46
REMARK   15  A    between atoms: C_46  and  C_47
REMARK   16  A    between atoms: C_46  and  C_48
REMARK   17  A    between atoms: C_48  and  C_49
REMARK   18  A    between atoms: C_48  and  O_57
REMARK   19  A    between atoms: C_49  and  C_50
REMARK   20  A    between atoms: C_49  and  C_51
REMARK   21  A    between atoms: C_52  and  N_53
REMARK   22  A    between atoms: N_53  and  C_54
REMARK   23  A    between atoms: N_53  and  C_55
REMARK   24  A    between atoms: C_55  and  O_56
REMARK   25  A    between atoms: O_57  and  C_58
REMARK   26  A    between atoms: C_58  and  C_60
REMARK   27  A    between atoms: O_61  and  C_62
REMARK                            x       y       z     vdW  Elec       q    Type
REMARK                         _______ _______ _______ _____ _____    ______ ____
ROOT
ATOM      1  C   UNL     1     142.302 165.476 189.222  0.00  0.00    +0.008 C 
ATOM      2  C   UNL     1     142.257 164.022 188.743  0.00  0.00    +0.014 C 
ATOM      3  C   UNL     1     143.578 163.271 188.717  0.00  0.00    +0.134 C 
ATOM      4  O   UNL     1     143.804 162.377 189.535  0.00  0.00    -0.297 OA
ATOM      5  C   UNL     1     144.564 163.631 187.619  0.00  0.00    +0.006 C 
ATOM      6  C   UNL     1     145.588 162.527 187.369  0.00  0.00    -0.044 C 
ATOM      7  C   UNL     1     146.364 162.666 186.052  0.00  0.00    -0.026 C 
ATOM      8  C   UNL     1     147.097 164.004 185.881  0.00  0.00    +0.065 C 
ATOM      9  C   UNL     1     148.128 163.920 184.755  0.00  0.00    +0.071 C 
ATOM     10  C   UNL     1     149.108 165.060 184.824  0.00  0.00    +0.310 C 
ATOM     11  O   UNL     1     149.220 165.921 183.960  0.00  0.00    -0.251 OA
ATOM     12  O   UNL     1     149.882 164.951 185.939  0.00  0.00    -0.461 OA
ATOM     13  C   UNL     1     150.935 165.932 186.099  0.00  0.00    +0.110 C 
ATOM     14  C   UNL     1     152.149 165.220 186.773  0.00  0.00    +0.020 C 
ATOM     15  C   UNL     1     151.790 164.221 187.924  0.00  0.00    +0.068 C 
ATOM     16  C   UNL     1     151.422 164.888 189.270  0.00  0.00    -0.008 C 
ATOM     17  C   UNL     1     152.584 165.565 189.964  0.00  0.00    -0.077 C 
ATOM     18  C   UNL     1     152.621 165.991 191.236  0.00  0.00    -0.003 C 
ATOM     19  C   UNL     1     151.506 165.961 192.121  0.00  0.00    +0.220 A 
ATOM     20  N   UNL     1     150.228 165.829 191.794  0.00  0.00    -0.205 NA
ATOM     21  C   UNL     1     149.536 165.939 192.971  0.00  0.00    +0.164 A 
ATOM     22  C   UNL     1     150.414 166.111 194.007  0.00  0.00    +0.125 A 
ATOM     23  O   UNL     1     151.670 166.137 193.487  0.00  0.00    -0.443 OA
ATOM     24  C   UNL     1     147.983 165.904 193.132  0.00  0.00    +0.250 A 
ATOM     25  N   UNL     1     147.129 165.790 192.126  0.00  0.00    -0.203 NA
ATOM     26  C   UNL     1     145.895 165.844 192.726  0.00  0.00    +0.164 A 
ATOM     27  C   UNL     1     146.041 165.978 194.083  0.00  0.00    +0.125 A 
ATOM     28  O   UNL     1     147.373 166.016 194.362  0.00  0.00    -0.442 OA
ATOM     29  C   UNL     1     144.503 165.772 192.020  0.00  0.00    +0.249 A 
ATOM     30  N   UNL     1     144.313 165.653 190.715  0.00  0.00    -0.212 NA
ATOM     31  C   UNL     1     142.946 165.621 190.560  0.00  0.00    +0.083 A 
ATOM     32  C   UNL     1     142.347 165.736 191.792  0.00  0.00    +0.116 A 
ATOM     33  O   UNL     1     143.323 165.830 192.732  0.00  0.00    -0.442 OA
ATOM     34  H   UNL     1     141.250 165.776 189.342  0.00  0.00    +0.037 HD
ATOM     35  H   UNL     1     141.802 163.951 187.749  0.00  0.00    +0.035 HD
ATOM     36  H   UNL     1     141.594 163.454 189.411  0.00  0.00    +0.035 HD
ATOM     37  H   UNL     1     143.989 163.811 186.703  0.00  0.00    +0.034 HD
ATOM     38  H   UNL     1     145.081 164.547 187.916  0.00  0.00    +0.034 HD
ATOM     39  H   UNL     1     146.298 162.498 188.207  0.00  0.00    +0.027 HD
ATOM     40  H   UNL     1     145.087 161.548 187.361  0.00  0.00    +0.027 HD
ATOM     41  H   UNL     1     147.088 161.842 186.014  0.00  0.00    +0.029 HD
ATOM     42  H   UNL     1     145.665 162.520 185.218  0.00  0.00    +0.029 HD
ATOM     43  H   UNL     1     147.575 164.286 186.826  0.00  0.00    +0.060 HD
ATOM     44  H   UNL     1     147.640 163.956 183.772  0.00  0.00    +0.040 HD
ATOM     45  H   UNL     1     148.710 162.992 184.799  0.00  0.00    +0.040 HD
ATOM     46  H   UNL     1     151.263 166.249 185.100  0.00  0.00    +0.074 HD
ATOM     47  H   UNL     1     152.856 165.972 187.141  0.00  0.00    +0.036 HD
ATOM     48  H   UNL     1     150.940 163.608 187.601  0.00  0.00    +0.060 HD
ATOM     49  H   UNL     1     151.041 164.107 189.940  0.00  0.00    +0.033 HD
ATOM     50  H   UNL     1     150.603 165.590 189.135  0.00  0.00    +0.033 HD
ATOM     51  H   UNL     1     153.496 165.673 189.377  0.00  0.00    +0.057 HD
ATOM     52  H   UNL     1     153.543 166.403 191.632  0.00  0.00    +0.067 HD
ATOM     53  H   UNL     1     150.327 166.236 195.076  0.00  0.00    +0.105 HD
ATOM     54  H   UNL     1     145.367 166.060 194.921  0.00  0.00    +0.105 HD
ATOM     55  H   UNL     1     141.332 165.747 192.152  0.00  0.00    +0.105 HD
ENDROOT
BRANCH   1  56
ATOM     56  C   UNL     1     142.875 166.447 188.189  0.00  0.00    -0.056 C 
ATOM     57  H   UNL     1     142.894 165.980 187.197  0.00  0.00    +0.024 HD
ATOM     58  H   UNL     1     142.285 167.362 188.090  0.00  0.00    +0.024 HD
ATOM     59  H   UNL     1     143.905 166.728 188.441  0.00  0.00    +0.024 HD
ENDBRANCH   1  56
BRANCH  14  60
ATOM     60  C   UNL     1     152.904 164.454 185.657  0.00  0.00    -0.057 C 
ATOM     61  H   UNL     1     152.432 163.489 185.444  0.00  0.00    +0.023 HD
ATOM     62  H   UNL     1     153.933 164.235 185.957  0.00  0.00    +0.023 HD
ATOM     63  H   UNL     1     152.934 165.036 184.728  0.00  0.00    +0.023 HD
ENDBRANCH  14  60
BRANCH  13  64
ATOM     64  C   UNL     1     150.344 167.182 186.787  0.00  0.00    +0.011 C 
ATOM     65  H   UNL     1     150.720 167.209 187.815  0.00  0.00    +0.033 HD
ATOM     66  H   UNL     1     150.707 168.093 186.317  0.00  0.00    +0.033 HD
BRANCH  64  67
ATOM     67  C   UNL     1     148.804 167.185 186.803  0.00  0.00    +0.064 C 
ATOM     68  H   UNL     1     148.448 166.452 186.066  0.00  0.00    +0.060 HD
BRANCH  67  69
ATOM     69  C   UNL     1     148.197 166.807 188.185  0.00  0.00    -0.017 C 
ATOM     70  H   UNL     1     148.420 165.751 188.374  0.00  0.00    +0.032 HD
BRANCH  69  71
ATOM     71  C   UNL     1     148.878 167.599 189.312  0.00  0.00    -0.060 C 
ATOM     72  H   UNL     1     149.427 168.457 188.908  0.00  0.00    +0.023 HD
ATOM     73  H   UNL     1     148.160 167.969 190.049  0.00  0.00    +0.023 HD
ATOM     74  H   UNL     1     149.601 166.969 189.843  0.00  0.00    +0.023 HD
ENDBRANCH  69  71
BRANCH  69  75
ATOM     75  C   UNL     1     146.664 166.964 188.310  0.00  0.00    -0.041 C 
ATOM     76  H   UNL     1     146.223 166.093 188.811  0.00  0.00    +0.027 HD
ATOM     77  H   UNL     1     146.240 166.967 187.296  0.00  0.00    +0.027 HD
BRANCH  75  78
ATOM     78  C   UNL     1     146.228 168.245 189.024  0.00  0.00    +0.007 C 
ATOM     79  H   UNL     1     145.636 167.996 189.909  0.00  0.00    +0.034 HD
ATOM     80  H   UNL     1     147.118 168.800 189.335  0.00  0.00    +0.034 HD
BRANCH  78  81
ATOM     81  C   UNL     1     145.380 169.151 188.139  0.00  0.00    +0.140 C 
ATOM     82  O   UNL     1     144.877 168.749 187.084  0.00  0.00    -0.297 OA
BRANCH  81  83
ATOM     83  C   UNL     1     145.113 170.584 188.593  0.00  0.00    +0.052 C 
ATOM     84  H   UNL     1     146.082 170.973 188.929  0.00  0.00    +0.041 HD
BRANCH  83  85
ATOM     85  C   UNL     1     144.706 171.456 187.404  0.00  0.00    -0.052 C 
ATOM     86  H   UNL     1     145.565 172.034 187.050  0.00  0.00    +0.024 HD
ATOM     87  H   UNL     1     144.333 170.867 186.561  0.00  0.00    +0.024 HD
ATOM     88  H   UNL     1     143.924 172.165 187.692  0.00  0.00    +0.024 HD
ENDBRANCH  83  85
BRANCH  83  89
ATOM     89  C   UNL     1     144.118 170.724 189.765  0.00  0.00    +0.118 C 
ATOM     90  H   UNL     1     143.218 171.176 189.322  0.00  0.00    +0.075 HD
BRANCH  89  91
ATOM     91  C   UNL     1     144.538 171.645 190.950  0.00  0.00    +0.014 C 
ATOM     92  H   UNL     1     144.298 171.089 191.869  0.00  0.00    +0.038 HD
BRANCH  91  93
ATOM     93  C   UNL     1     143.687 172.919 191.013  0.00  0.00    -0.056 C 
ATOM     94  H   UNL     1     143.465 173.324 190.020  0.00  0.00    +0.024 HD
ATOM     95  H   UNL     1     144.198 173.701 191.586  0.00  0.00    +0.024 HD
ATOM     96  H   UNL     1     142.734 172.721 191.514  0.00  0.00    +0.024 HD
ENDBRANCH  91  93
BRANCH  91  97
ATOM     97  C   UNL     1     146.037 171.865 191.046  0.00  0.00    -0.064 C 
ATOM     98  C   UNL     1     146.690 172.665 191.899  0.00  0.00    -0.010 C 
ATOM     99  H   UNL     1     146.622 171.272 190.346  0.00  0.00    +0.059 HD
ATOM    100  H   UNL     1     146.124 173.281 192.597  0.00  0.00    +0.078 HD
BRANCH  98 101
ATOM    101  N   UNL     1     148.057 172.863 192.022  0.00  0.00    -0.317 N 
BRANCH 101 102
ATOM    102  C   UNL     1     148.906 173.279 190.909  0.00  0.00    +0.002 C 
ATOM    103  H   UNL     1     148.966 172.487 190.153  0.00  0.00    +0.043 HD
ATOM    104  H   UNL     1     148.527 174.178 190.410  0.00  0.00    +0.043 HD
ATOM    105  H   UNL     1     149.918 173.505 191.267  0.00  0.00    +0.043 HD
ENDBRANCH 101 102
BRANCH 101 106
ATOM    106  C   UNL     1     148.743 172.645 193.283  0.00  0.00    +0.110 C 
ATOM    107  H   UNL     1     148.068 172.238 194.046  0.00  0.00    +0.077 HD
ATOM    108  H   UNL     1     149.182 173.564 193.689  0.00  0.00    +0.077 HD
BRANCH 106 109
ATOM    109  O   UNL     1     149.773 171.713 193.035  0.00  0.00    -0.377 OA
ATOM    110  H   UNL     1     149.374 171.160 192.339  0.00  0.00    +0.211 HD
ENDBRANCH 106 109
ENDBRANCH 101 106
ENDBRANCH  98 101
ENDBRANCH  91  97
ENDBRANCH  89  91
BRANCH  89 111
ATOM    111  O   UNL     1     143.762 169.409 190.251  0.00  0.00    -0.460 OA
BRANCH 111 112
ATOM    112  C   UNL     1     142.668 169.321 191.057  0.00  0.00    +0.304 C 
ATOM    113  O   UNL     1     142.684 169.153 192.269  0.00  0.00    -0.251 OA
BRANCH 112 114
ATOM    114  C   UNL     1     141.423 169.441 190.233  0.00  0.00    +0.033 C 
ATOM    115  H   UNL     1     140.623 169.878 190.835  0.00  0.00    +0.034 HD
ATOM    116  H   UNL     1     141.129 168.458 189.860  0.00  0.00    +0.034 HD
ATOM    117  H   UNL     1     141.615 170.094 189.377  0.00  0.00    +0.034 HD
ENDBRANCH 112 114
ENDBRANCH 111 112
ENDBRANCH  89 111
ENDBRANCH  83  89
ENDBRANCH  81  83
ENDBRANCH  78  81
ENDBRANCH  75  78
ENDBRANCH  69  75
ENDBRANCH  67  69
BRANCH  67 118
ATOM    118  O   UNL     1     148.369 168.492 186.404  0.00  0.00    -0.379 OA
BRANCH 118 119
ATOM    119  C   UNL     1     147.695 168.504 185.150  0.00  0.00    +0.037 C 
ATOM    120  H   UNL     1     148.312 169.059 184.438  0.00  0.00    +0.052 HD
ATOM    121  H   UNL     1     147.571 167.481 184.776  0.00  0.00    +0.052 HD
ATOM    122  H   UNL     1     146.723 168.999 185.225  0.00  0.00    +0.052 HD
ENDBRANCH 118 119
ENDBRANCH  67 118
ENDBRANCH  64  67
ENDBRANCH  13  64
BRANCH   8 123
ATOM    123  O   UNL     1     146.146 165.024 185.565  0.00  0.00    -0.391 OA
ATOM    124  H   UNL     1     145.383 164.610 185.122  0.00  0.00    +0.210 HD
ENDBRANCH   8 123
BRANCH  15 125
ATOM    125  O   UNL     1     152.909 163.324 188.126  0.00  0.00    -0.379 OA
BRANCH 125 126
ATOM    126  C   UNL     1     152.534 161.977 188.385  0.00  0.00    +0.037 C 
ATOM    127  H   UNL     1     151.709 161.930 189.102  0.00  0.00    +0.052 HD
ATOM    128  H   UNL     1     152.199 161.531 187.445  0.00  0.00    +0.052 HD
ATOM    129  H   UNL     1     153.385 161.394 188.747  0.00  0.00    +0.052 HD
ENDBRANCH 125 126
ENDBRANCH  15 125
TORSDOF 27
ENDMDL
MODEL 2
REMARK VINA RESULT:      -5.5      2.869      7.196
REMARK  Name = Ulapualide A_conf2
REMARK  27 active torsions:
REMARK  status: ('A' for Active; 'I' for Inactive)
REMARK    1  A    between atoms: C_1  and  C_2
REMARK    2  A    between atoms: C_9  and  O_63
REMARK    3  A    between atoms: C_14  and  C_38
REMARK    4  A    between atoms: C_15  and  C_37
REMARK    5  A    between atoms: C_16  and  O_35
REMARK    6  A    between atoms: O_35  and  C_36
REMARK    7  A    between atoms: C_38  and  C_39
REMARK    8  A    between atoms: C_39  and  C_40
REMARK    9  A    between atoms: C_39  and  O_61
REMARK   10  A    between atoms: C_40  and  C_41
REMARK   11  A    between atoms: C_40  and  C_42
REMARK   12  A    between atoms: C_42  and  C_43
REMARK   13  A    between atoms: C_43  and  C_44
REMARK   14  A    between atoms: C_44  and  C_46
REMARK   15  A    between atoms: C_46  and  C_47
REMARK   16  A    between atoms: C_46  and  C_48
REMARK   17  A    between atoms: C_48  and  C_49
REMARK   18  A    between atoms: C_48  and  O_57
REMARK   19  A    between atoms: C_49  and  C_50
REMARK   20  A    between atoms: C_49  and  C_51
REMARK   21  A    between atoms: C_52  and  N_53
REMARK   22  A    between atoms: N_53  and  C_54
REMARK   23  A    between atoms: N_53  and  C_55
REMARK   24  A    between atoms: C_55  and  O_56
REMARK   25  A    between atoms: O_57  and  C_58
REMARK   26  A    between atoms: C_58  and  C_60
REMARK   27  A    between atoms: O_61  and  C_62
REMARK                            x       y       z     vdW  Elec       q    Type
REMARK                         _______ _______ _______ _____ _____    ______ ____
ROOT
ATOM      1  C   UNL     1     142.896 158.893 188.831  0.00  0.00    +0.008 C 
ATOM      2  C   UNL     1     142.090 158.975 187.531  0.00  0.00    +0.014 C 
ATOM      3  C   UNL     1     142.416 160.130 186.598  0.00  0.00    +0.134 C 
ATOM      4  O   UNL     1     143.001 159.924 185.532  0.00  0.00    -0.297 OA
ATOM      5  C   UNL     1     141.945 161.514 187.009  0.00  0.00    +0.006 C 
ATOM      6  C   UNL     1     141.865 162.478 185.828  0.00  0.00    -0.044 C 
ATOM      7  C   UNL     1     141.060 163.756 186.104  0.00  0.00    -0.026 C 
ATOM      8  C   UNL     1     141.546 164.568 187.313  0.00  0.00    +0.065 C 
ATOM      9  C   UNL     1     140.957 165.978 187.293  0.00  0.00    +0.071 C 
ATOM     10  C   UNL     1     141.705 166.897 188.223  0.00  0.00    +0.310 C 
ATOM     11  O   UNL     1     141.209 167.423 189.211  0.00  0.00    -0.251 OA
ATOM     12  O   UNL     1     142.971 167.102 187.766  0.00  0.00    -0.461 OA
ATOM     13  C   UNL     1     143.789 168.036 188.511  0.00  0.00    +0.110 C 
ATOM     14  C   UNL     1     144.695 168.793 187.492  0.00  0.00    +0.020 C 
ATOM     15  C   UNL     1     145.307 167.911 186.351  0.00  0.00    +0.068 C 
ATOM     16  C   UNL     1     146.506 167.036 186.782  0.00  0.00    -0.008 C 
ATOM     17  C   UNL     1     147.760 167.818 187.108  0.00  0.00    -0.077 C 
ATOM     18  C   UNL     1     148.999 167.324 187.255  0.00  0.00    -0.003 C 
ATOM     19  C   UNL     1     149.313 165.936 187.227  0.00  0.00    +0.220 A 
ATOM     20  N   UNL     1     148.472 164.921 187.372  0.00  0.00    -0.205 NA
ATOM     21  C   UNL     1     149.251 163.795 187.351  0.00  0.00    +0.164 A 
ATOM     22  C   UNL     1     150.561 164.144 187.165  0.00  0.00    +0.125 A 
ATOM     23  O   UNL     1     150.624 165.501 187.094  0.00  0.00    -0.443 OA
ATOM     24  C   UNL     1     148.751 162.327 187.536  0.00  0.00    +0.250 A 
ATOM     25  N   UNL     1     147.491 161.989 187.767  0.00  0.00    -0.203 NA
ATOM     26  C   UNL     1     147.529 160.622 187.896  0.00  0.00    +0.164 A 
ATOM     27  C   UNL     1     148.813 160.173 187.728  0.00  0.00    +0.125 A 
ATOM     28  O   UNL     1     149.610 161.251 187.492  0.00  0.00    -0.442 OA
ATOM     29  C   UNL     1     146.323 159.674 188.195  0.00  0.00    +0.249 A 
ATOM     30  N   UNL     1     145.071 160.063 188.375  0.00  0.00    -0.212 NA
ATOM     31  C   UNL     1     144.369 158.900 188.596  0.00  0.00    +0.083 A 
ATOM     32  C   UNL     1     145.236 157.833 188.554  0.00  0.00    +0.116 A 
ATOM     33  O   UNL     1     146.482 158.308 188.297  0.00  0.00    -0.442 OA
ATOM     34  H   UNL     1     142.648 157.913 189.267  0.00  0.00    +0.037 HD
ATOM     35  H   UNL     1     141.014 158.994 187.738  0.00  0.00    +0.035 HD
ATOM     36  H   UNL     1     142.263 158.056 186.954  0.00  0.00    +0.035 HD
ATOM     37  H   UNL     1     140.953 161.406 187.461  0.00  0.00    +0.034 HD
ATOM     38  H   UNL     1     142.647 161.904 187.751  0.00  0.00    +0.034 HD
ATOM     39  H   UNL     1     142.882 162.751 185.516  0.00  0.00    +0.027 HD
ATOM     40  H   UNL     1     141.407 161.974 184.965  0.00  0.00    +0.027 HD
ATOM     41  H   UNL     1     141.114 164.374 185.199  0.00  0.00    +0.029 HD
ATOM     42  H   UNL     1     140.006 163.481 186.246  0.00  0.00    +0.029 HD
ATOM     43  H   UNL     1     142.642 164.604 187.316  0.00  0.00    +0.060 HD
ATOM     44  H   UNL     1     139.905 165.969 187.606  0.00  0.00    +0.040 HD
ATOM     45  H   UNL     1     140.999 166.428 186.295  0.00  0.00    +0.040 HD
ATOM     46  H   UNL     1     143.125 168.784 188.967  0.00  0.00    +0.074 HD
ATOM     47  H   UNL     1     145.496 169.313 188.029  0.00  0.00    +0.036 HD
ATOM     48  H   UNL     1     144.522 167.252 185.962  0.00  0.00    +0.060 HD
ATOM     49  H   UNL     1     146.742 166.356 185.953  0.00  0.00    +0.033 HD
ATOM     50  H   UNL     1     146.231 166.399 187.619  0.00  0.00    +0.033 HD
ATOM     51  H   UNL     1     147.644 168.900 187.184  0.00  0.00    +0.057 HD
ATOM     52  H   UNL     1     149.826 168.005 187.424  0.00  0.00    +0.067 HD
ATOM     53  H   UNL     1     151.496 163.609 187.084  0.00  0.00    +0.105 HD
ATOM     54  H   UNL     1     149.294 159.207 187.746  0.00  0.00    +0.105 HD
ATOM     55  H   UNL     1     145.141 156.765 188.656  0.00  0.00    +0.105 HD
ENDROOT
BRANCH   1  56
ATOM     56  C   UNL     1     142.467 159.915 189.886  0.00  0.00    -0.056 C 
ATOM     57  H   UNL     1     142.433 159.447 190.877  0.00  0.00    +0.024 HD
ATOM     58  H   UNL     1     143.155 160.760 189.966  0.00  0.00    +0.024 HD
ATOM     59  H   UNL     1     141.465 160.306 189.672  0.00  0.00    +0.024 HD
ENDBRANCH   1  56
BRANCH  14  60
ATOM     60  C   UNL     1     143.830 169.911 186.856  0.00  0.00    -0.057 C 
ATOM     61  H   UNL     1     144.215 170.207 185.874  0.00  0.00    +0.023 HD
ATOM     62  H   UNL     1     143.836 170.813 187.475  0.00  0.00    +0.023 HD
ATOM     63  H   UNL     1     142.790 169.586 186.735  0.00  0.00    +0.023 HD
ENDBRANCH  14  60
BRANCH  13  64
ATOM     64  C   UNL     1     144.467 167.280 189.674  0.00  0.00    +0.011 C 
ATOM     65  H   UNL     1     144.330 166.208 189.505  0.00  0.00    +0.033 HD
ATOM     66  H   UNL     1     145.542 167.443 189.671  0.00  0.00    +0.033 HD
BRANCH  64  67
ATOM     67  C   UNL     1     143.891 167.660 191.052  0.00  0.00    +0.064 C 
ATOM     68  H   UNL     1     142.828 167.386 191.071  0.00  0.00    +0.060 HD
BRANCH  67  69
ATOM     69  C   UNL     1     144.593 166.936 192.238  0.00  0.00    -0.017 C 
ATOM     70  H   UNL     1     145.397 167.587 192.603  0.00  0.00    +0.032 HD
BRANCH  69  71
ATOM     71  C   UNL     1     143.621 166.754 193.414  0.00  0.00    -0.060 C 
ATOM     72  H   UNL     1     143.851 165.840 193.971  0.00  0.00    +0.023 HD
ATOM     73  H   UNL     1     143.654 167.597 194.111  0.00  0.00    +0.023 HD
ATOM     74  H   UNL     1     142.590 166.667 193.051  0.00  0.00    +0.023 HD
ENDBRANCH  69  71
BRANCH  69  75
ATOM     75  C   UNL     1     145.244 165.574 191.902  0.00  0.00    -0.041 C 
ATOM     76  H   UNL     1     145.132 165.342 190.835  0.00  0.00    +0.027 HD
ATOM     77  H   UNL     1     144.687 164.792 192.434  0.00  0.00    +0.027 HD
BRANCH  75  78
ATOM     78  C   UNL     1     146.718 165.479 192.297  0.00  0.00    +0.007 C 
ATOM     79  H   UNL     1     147.154 164.559 191.896  0.00  0.00    +0.034 HD
ATOM     80  H   UNL     1     147.255 166.338 191.885  0.00  0.00    +0.034 HD
BRANCH  78  81
ATOM     81  C   UNL     1     146.919 165.464 193.809  0.00  0.00    +0.140 C 
ATOM     82  O   UNL     1     146.395 164.609 194.530  0.00  0.00    -0.297 OA
BRANCH  81  83
ATOM     83  C   UNL     1     147.830 166.516 194.440  0.00  0.00    +0.052 C 
ATOM     84  H   UNL     1     147.554 167.467 193.969  0.00  0.00    +0.041 HD
BRANCH  83  85
ATOM     85  C   UNL     1     147.507 166.681 195.927  0.00  0.00    -0.052 C 
ATOM     86  H   UNL     1     148.390 167.039 196.465  0.00  0.00    +0.024 HD
ATOM     87  H   UNL     1     146.699 167.396 196.102  0.00  0.00    +0.024 HD
ATOM     88  H   UNL     1     147.214 165.724 196.368  0.00  0.00    +0.024 HD
ENDBRANCH  83  85
BRANCH  83  89
ATOM     89  C   UNL     1     149.340 166.297 194.210  0.00  0.00    +0.118 C 
ATOM     90  H   UNL     1     149.835 166.870 195.008  0.00  0.00    +0.075 HD
BRANCH  89  91
ATOM     91  C   UNL     1     149.937 166.806 192.863  0.00  0.00    +0.014 C 
ATOM     92  H   UNL     1     149.813 165.982 192.143  0.00  0.00    +0.038 HD
BRANCH  91  93
ATOM     93  C   UNL     1     151.450 167.037 192.959  0.00  0.00    -0.056 C 
ATOM     94  H   UNL     1     151.765 167.961 192.464  0.00  0.00    +0.024 HD
ATOM     95  H   UNL     1     152.000 166.207 192.501  0.00  0.00    +0.024 HD
ATOM     96  H   UNL     1     151.764 167.095 194.007  0.00  0.00    +0.024 HD
ENDBRANCH  91  93
BRANCH  91  97
ATOM     97  C   UNL     1     149.148 167.945 192.242  0.00  0.00    -0.064 C 
ATOM     98  C   UNL     1     149.597 169.165 191.919  0.00  0.00    -0.010 C 
ATOM     99  H   UNL     1     148.110 167.704 192.023  0.00  0.00    +0.059 HD
ATOM    100  H   UNL     1     150.628 169.435 192.146  0.00  0.00    +0.078 HD
BRANCH  98 101
ATOM    101  N   UNL     1     148.903 170.211 191.330  0.00  0.00    -0.317 N 
BRANCH 101 102
ATOM    102  C   UNL     1     149.185 171.616 191.615  0.00  0.00    +0.002 C 
ATOM    103  H   UNL     1     149.728 171.716 192.562  0.00  0.00    +0.043 HD
ATOM    104  H   UNL     1     149.798 172.083 190.836  0.00  0.00    +0.043 HD
ATOM    105  H   UNL     1     148.249 172.186 191.680  0.00  0.00    +0.043 HD
ENDBRANCH 101 102
BRANCH 101 106
ATOM    106  C   UNL     1     147.820 169.969 190.393  0.00  0.00    +0.110 C 
ATOM    107  H   UNL     1     147.850 168.947 189.996  0.00  0.00    +0.077 HD
ATOM    108  H   UNL     1     147.842 170.655 189.538  0.00  0.00    +0.077 HD
BRANCH 106 109
ATOM    109  O   UNL     1     146.615 170.153 191.102  0.00  0.00    -0.377 OA
ATOM    110  H   UNL     1     146.385 169.238 191.341  0.00  0.00    +0.211 HD
ENDBRANCH 106 109
ENDBRANCH 101 106
ENDBRANCH  98 101
ENDBRANCH  91  97
ENDBRANCH  89  91
BRANCH  89 111
ATOM    111  O   UNL     1     149.657 164.898 194.404  0.00  0.00    -0.460 OA
BRANCH 111 112
ATOM    112  C   UNL     1     150.408 164.578 195.493  0.00  0.00    +0.304 C 
ATOM    113  O   UNL     1     150.745 163.449 195.823  0.00  0.00    -0.251 OA
BRANCH 112 114
ATOM    114  C   UNL     1     150.753 165.823 196.252  0.00  0.00    +0.033 C 
ATOM    115  H   UNL     1     151.666 165.662 196.829  0.00  0.00    +0.034 HD
ATOM    116  H   UNL     1     149.926 166.096 196.911  0.00  0.00    +0.034 HD
ATOM    117  H   UNL     1     150.922 166.642 195.548  0.00  0.00    +0.034 HD
ENDBRANCH 112 114
ENDBRANCH 111 112
ENDBRANCH  89 111
ENDBRANCH  83  89
ENDBRANCH  81  83
ENDBRANCH  78  81
ENDBRANCH  75  78
ENDBRANCH  69  75
ENDBRANCH  67  69
BRANCH  67 118
ATOM    118  O   UNL     1     144.007 169.082 191.193  0.00  0.00    -0.379 OA
BRANCH 118 119
ATOM    119  C   UNL     1     142.759 169.729 191.422  0.00  0.00    +0.037 C 
ATOM    120  H   UNL     1     142.208 169.747 190.478  0.00  0.00    +0.052 HD
ATOM    121  H   UNL     1     142.170 169.168 192.156  0.00  0.00    +0.052 HD
ATOM    122  H   UNL     1     142.901 170.760 191.759  0.00  0.00    +0.052 HD
ENDBRANCH 118 119
ENDBRANCH  67 118
ENDBRANCH  64  67
ENDBRANCH  13  64
BRANCH   8 123
ATOM    123  O   UNL     1     141.139 163.911 188.515  0.00  0.00    -0.391 OA
ATOM    124  H   UNL     1     140.439 163.269 188.296  0.00  0.00    +0.210 HD
ENDBRANCH   8 123
BRANCH  15 125
ATOM    125  O   UNL     1     145.714 168.776 185.263  0.00  0.00    -0.379 OA
BRANCH 125 126
ATOM    126  C   UNL     1     145.674 168.158 183.983  0.00  0.00    +0.037 C 
ATOM    127  H   UNL     1     144.967 167.322 183.973  0.00  0.00    +0.052 HD
ATOM    128  H   UNL     1     145.337 168.902 183.257  0.00  0.00    +0.052 HD
ATOM    129  H   UNL     1     146.667 167.818 183.678  0.00  0.00    +0.052 HD
ENDBRANCH 125 126
ENDBRANCH  15 125
TORSDOF 27
ENDMDL
MODEL 3
REMARK VINA RESULT:      -5.4      2.911      5.729
REMARK  Name = Ulapualide A_conf2
REMARK  27 active torsions:
REMARK  status: ('A' for Active; 'I' for Inactive)
REMARK    1  A    between atoms: C_1  and  C_2
REMARK    2  A    between atoms: C_9  and  O_63
REMARK    3  A    between atoms: C_14  and  C_38
REMARK    4  A    between atoms: C_15  and  C_37
REMARK    5  A    between atoms: C_16  and  O_35
REMARK    6  A    between atoms: O_35  and  C_36
REMARK    7  A    between atoms: C_38  and  C_39
REMARK    8  A    between atoms: C_39  and  C_40
REMARK    9  A    between atoms: C_39  and  O_61
REMARK   10  A    between atoms: C_40  and  C_41
REMARK   11  A    between atoms: C_40  and  C_42
REMARK   12  A    between atoms: C_42  and  C_43
REMARK   13  A    between atoms: C_43  and  C_44
REMARK   14  A    between atoms: C_44  and  C_46
REMARK   15  A    between atoms: C_46  and  C_47
REMARK   16  A    between atoms: C_46  and  C_48
REMARK   17  A    between atoms: C_48  and  C_49
REMARK   18  A    between atoms: C_48  and  O_57
REMARK   19  A    between atoms: C_49  and  C_50
REMARK   20  A    between atoms: C_49  and  C_51
REMARK   21  A    between atoms: C_52  and  N_53
REMARK   22  A    between atoms: N_53  and  C_54
REMARK   23  A    between atoms: N_53  and  C_55
REMARK   24  A    between atoms: C_55  and  O_56
REMARK   25  A    between atoms: O_57  and  C_58
REMARK   26  A    between atoms: C_58  and  C_60
REMARK   27  A    between atoms: O_61  and  C_62
REMARK                            x       y       z     vdW  Elec       q    Type
REMARK                         _______ _______ _______ _____ _____    ______ ____
ROOT
ATOM      1  C   UNL     1     142.642 163.804 189.162  0.00  0.00    +0.008 C 
ATOM      2  C   UNL     1     142.337 164.162 187.704  0.00  0.00    +0.014 C 
ATOM      3  C   UNL     1     143.423 163.858 186.685  0.00  0.00    +0.134 C 
ATOM      4  O   UNL     1     143.278 162.941 185.874  0.00  0.00    -0.297 OA
ATOM      5  C   UNL     1     144.646 164.758 186.679  0.00  0.00    +0.006 C 
ATOM      6  C   UNL     1     145.404 164.704 185.355  0.00  0.00    -0.044 C 
ATOM      7  C   UNL     1     146.414 165.842 185.153  0.00  0.00    -0.026 C 
ATOM      8  C   UNL     1     147.464 165.969 186.265  0.00  0.00    +0.065 C 
ATOM      9  C   UNL     1     148.629 166.851 185.816  0.00  0.00    +0.071 C 
ATOM     10  C   UNL     1     149.825 166.677 186.713  0.00  0.00    +0.310 C 
ATOM     11  O   UNL     1     150.292 167.568 187.412  0.00  0.00    -0.251 OA
ATOM     12  O   UNL     1     150.338 165.423 186.579  0.00  0.00    -0.461 OA
ATOM     13  C   UNL     1     151.549 165.132 187.318  0.00  0.00    +0.110 C 
ATOM     14  C   UNL     1     152.416 164.171 186.449  0.00  0.00    +0.020 C 
ATOM     15  C   UNL     1     151.628 163.038 185.706  0.00  0.00    +0.068 C 
ATOM     16  C   UNL     1     151.196 161.855 186.601  0.00  0.00    -0.008 C 
ATOM     17  C   UNL     1     152.343 160.996 187.090  0.00  0.00    -0.077 C 
ATOM     18  C   UNL     1     152.253 159.782 187.654  0.00  0.00    -0.003 C 
ATOM     19  C   UNL     1     151.023 159.143 187.982  0.00  0.00    +0.220 A 
ATOM     20  N   UNL     1     149.830 159.711 188.093  0.00  0.00    -0.205 NA
ATOM     21  C   UNL     1     148.986 158.712 188.499  0.00  0.00    +0.164 A 
ATOM     22  C   UNL     1     149.679 157.537 188.604  0.00  0.00    +0.125 A 
ATOM     23  O   UNL     1     150.978 157.791 188.288  0.00  0.00    -0.443 OA
ATOM     24  C   UNL     1     147.467 158.868 188.826  0.00  0.00    +0.250 A 
ATOM     25  N   UNL     1     146.804 160.014 188.775  0.00  0.00    -0.203 NA
ATOM     26  C   UNL     1     145.532 159.684 189.174  0.00  0.00    +0.164 A 
ATOM     27  C   UNL     1     145.461 158.341 189.443  0.00  0.00    +0.125 A 
ATOM     28  O   UNL     1     146.691 157.801 189.222  0.00  0.00    -0.442 OA
ATOM     29  C   UNL     1     144.313 160.650 189.320  0.00  0.00    +0.249 A 
ATOM     30  N   UNL     1     144.337 161.952 189.081  0.00  0.00    -0.212 NA
ATOM     31  C   UNL     1     143.052 162.379 189.330  0.00  0.00    +0.083 A 
ATOM     32  C   UNL     1     142.288 161.308 189.728  0.00  0.00    +0.116 A 
ATOM     33  O   UNL     1     143.074 160.200 189.724  0.00  0.00    -0.442 OA
ATOM     34  H   UNL     1     141.688 163.925 189.698  0.00  0.00    +0.037 HD
ATOM     35  H   UNL     1     142.063 165.219 187.610  0.00  0.00    +0.035 HD
ATOM     36  H   UNL     1     141.449 163.599 187.384  0.00  0.00    +0.035 HD
ATOM     37  H   UNL     1     144.304 165.783 186.863  0.00  0.00    +0.034 HD
ATOM     38  H   UNL     1     145.305 164.438 187.490  0.00  0.00    +0.034 HD
ATOM     39  H   UNL     1     145.925 163.740 185.278  0.00  0.00    +0.027 HD
ATOM     40  H   UNL     1     144.693 164.734 184.517  0.00  0.00    +0.027 HD
ATOM     41  H   UNL     1     146.914 165.665 184.193  0.00  0.00    +0.029 HD
ATOM     42  H   UNL     1     145.861 166.787 185.060  0.00  0.00    +0.029 HD
ATOM     43  H   UNL     1     147.819 164.973 186.553  0.00  0.00    +0.060 HD
ATOM     44  H   UNL     1     148.348 167.912 185.834  0.00  0.00    +0.040 HD
ATOM     45  H   UNL     1     148.955 166.615 184.796  0.00  0.00    +0.040 HD
ATOM     46  H   UNL     1     152.117 166.066 187.427  0.00  0.00    +0.074 HD
ATOM     47  H   UNL     1     153.205 163.728 187.067  0.00  0.00    +0.036 HD
ATOM     48  H   UNL     1     150.729 163.477 185.258  0.00  0.00    +0.060 HD
ATOM     49  H   UNL     1     150.526 161.215 186.014  0.00  0.00    +0.033 HD
ATOM     50  H   UNL     1     150.607 162.210 187.443  0.00  0.00    +0.033 HD
ATOM     51  H   UNL     1     153.345 161.392 186.920  0.00  0.00    +0.057 HD
ATOM     52  H   UNL     1     153.160 159.242 187.901  0.00  0.00    +0.067 HD
ATOM     53  H   UNL     1     149.435 156.522 188.879  0.00  0.00    +0.105 HD
ATOM     54  H   UNL     1     144.687 157.667 189.776  0.00  0.00    +0.105 HD
ATOM     55  H   UNL     1     141.257 161.164 190.007  0.00  0.00    +0.105 HD
ENDROOT
BRANCH   1  56
ATOM     56  C   UNL     1     143.606 164.774 189.846  0.00  0.00    -0.056 C 
ATOM     57  H   UNL     1     143.254 165.806 189.729  0.00  0.00    +0.024 HD
ATOM     58  H   UNL     1     143.699 164.598 190.920  0.00  0.00    +0.024 HD
ATOM     59  H   UNL     1     144.607 164.715 189.400  0.00  0.00    +0.024 HD
ENDBRANCH   1  56
BRANCH  14  60
ATOM     60  C   UNL     1     153.153 165.043 185.401  0.00  0.00    -0.057 C 
ATOM     61  H   UNL     1     153.943 165.644 185.863  0.00  0.00    +0.023 HD
ATOM     62  H   UNL     1     152.466 165.751 184.925  0.00  0.00    +0.023 HD
ATOM     63  H   UNL     1     153.603 164.424 184.617  0.00  0.00    +0.023 HD
ENDBRANCH  14  60
BRANCH  13  64
ATOM     64  C   UNL     1     151.161 164.683 188.743  0.00  0.00    +0.011 C 
ATOM     65  H   UNL     1     150.121 164.976 188.918  0.00  0.00    +0.033 HD
ATOM     66  H   UNL     1     151.180 163.599 188.829  0.00  0.00    +0.033 HD
BRANCH  64  67
ATOM     67  C   UNL     1     152.058 165.303 189.831  0.00  0.00    +0.064 C 
ATOM     68  H   UNL     1     152.768 165.987 189.347  0.00  0.00    +0.060 HD
BRANCH  67  69
ATOM     69  C   UNL     1     151.267 166.113 190.899  0.00  0.00    -0.017 C 
ATOM     70  H   UNL     1     150.206 165.855 190.801  0.00  0.00    +0.032 HD
BRANCH  69  71
ATOM     71  C   UNL     1     151.682 165.691 192.317  0.00  0.00    -0.060 C 
ATOM     72  H   UNL     1     152.261 164.761 192.293  0.00  0.00    +0.023 HD
ATOM     73  H   UNL     1     152.285 166.456 192.816  0.00  0.00    +0.023 HD
ATOM     74  H   UNL     1     150.798 165.511 192.940  0.00  0.00    +0.023 HD
ENDBRANCH  69  71
BRANCH  69  75
ATOM     75  C   UNL     1     151.362 167.652 190.779  0.00  0.00    -0.041 C 
ATOM     76  H   UNL     1     150.635 168.031 190.050  0.00  0.00    +0.027 HD
ATOM     77  H   UNL     1     152.349 167.899 190.368  0.00  0.00    +0.027 HD
BRANCH  75  78
ATOM     78  C   UNL     1     151.189 168.388 192.109  0.00  0.00    +0.007 C 
ATOM     79  H   UNL     1     150.611 167.773 192.804  0.00  0.00    +0.034 HD
ATOM     80  H   UNL     1     152.175 168.584 192.539  0.00  0.00    +0.034 HD
BRANCH  78  81
ATOM     81  C   UNL     1     150.458 169.717 191.952  0.00  0.00    +0.140 C 
ATOM     82  O   UNL     1     150.984 170.691 191.403  0.00  0.00    -0.297 OA
BRANCH  81  83
ATOM     83  C   UNL     1     149.019 169.830 192.452  0.00  0.00    +0.052 C 
ATOM     84  H   UNL     1     149.019 169.382 193.453  0.00  0.00    +0.041 HD
BRANCH  83  85
ATOM     85  C   UNL     1     148.636 171.298 192.655  0.00  0.00    -0.052 C 
ATOM     86  H   UNL     1     148.499 171.506 193.721  0.00  0.00    +0.024 HD
ATOM     87  H   UNL     1     149.399 171.985 192.279  0.00  0.00    +0.024 HD
ATOM     88  H   UNL     1     147.695 171.526 192.148  0.00  0.00    +0.024 HD
ENDBRANCH  83  85
BRANCH  83  89
ATOM     89  C   UNL     1     147.970 169.084 191.602  0.00  0.00    +0.118 C 
ATOM     90  H   UNL     1     147.036 169.647 191.744  0.00  0.00    +0.075 HD
BRANCH  89  91
ATOM     91  C   UNL     1     147.659 167.607 191.989  0.00  0.00    +0.014 C 
ATOM     92  H   UNL     1     148.397 166.989 191.454  0.00  0.00    +0.038 HD
BRANCH  91  93
ATOM     93  C   UNL     1     146.293 167.153 191.461  0.00  0.00    -0.056 C 
ATOM     94  H   UNL     1     145.489 167.314 192.186  0.00  0.00    +0.024 HD
ATOM     95  H   UNL     1     146.307 166.086 191.209  0.00  0.00    +0.024 HD
ATOM     96  H   UNL     1     146.033 167.699 190.547  0.00  0.00    +0.024 HD
ENDBRANCH  91  93
BRANCH  91  97
ATOM     97  C   UNL     1     147.923 167.293 193.451  0.00  0.00    -0.064 C 
ATOM     98  C   UNL     1     148.468 166.181 193.960  0.00  0.00    -0.010 C 
ATOM     99  H   UNL     1     147.649 168.093 194.136  0.00  0.00    +0.059 HD
ATOM    100  H   UNL     1     148.732 165.360 193.294  0.00  0.00    +0.078 HD
BRANCH  98 101
ATOM    101  N   UNL     1     148.740 165.883 195.286  0.00  0.00    -0.317 N 
BRANCH 101 102
ATOM    102  C   UNL     1     147.723 165.904 196.334  0.00  0.00    +0.002 C 
ATOM    103  H   UNL     1     147.592 164.906 196.766  0.00  0.00    +0.043 HD
ATOM    104  H   UNL     1     147.984 166.583 197.153  0.00  0.00    +0.043 HD
ATOM    105  H   UNL     1     146.762 166.242 195.924  0.00  0.00    +0.043 HD
ENDBRANCH 101 102
BRANCH 101 106
ATOM    106  C   UNL     1     150.083 165.545 195.726  0.00  0.00    +0.110 C 
ATOM    107  H   UNL     1     150.843 165.932 195.037  0.00  0.00    +0.077 HD
ATOM    108  H   UNL     1     150.238 164.464 195.814  0.00  0.00    +0.077 HD
BRANCH 106 109
ATOM    109  O   UNL     1     150.262 166.141 196.992  0.00  0.00    -0.377 OA
ATOM    110  H   UNL     1     150.410 167.073 196.752  0.00  0.00    +0.211 HD
ENDBRANCH 106 109
ENDBRANCH 101 106
ENDBRANCH  98 101
ENDBRANCH  91  97
ENDBRANCH  89  91
BRANCH  89 111
ATOM    111  O   UNL     1     148.335 169.173 190.204  0.00  0.00    -0.460 OA
BRANCH 111 112
ATOM    112  C   UNL     1     147.365 169.565 189.333  0.00  0.00    +0.304 C 
ATOM    113  O   UNL     1     147.243 169.181 188.178  0.00  0.00    -0.251 OA
BRANCH 112 114
ATOM    114  C   UNL     1     146.465 170.562 189.997  0.00  0.00    +0.033 C 
ATOM    115  H   UNL     1     145.753 170.044 190.643  0.00  0.00    +0.034 HD
ATOM    116  H   UNL     1     145.939 171.147 189.240  0.00  0.00    +0.034 HD
ATOM    117  H   UNL     1     147.064 171.242 190.609  0.00  0.00    +0.034 HD
ENDBRANCH 112 114
ENDBRANCH 111 112
ENDBRANCH  89 111
ENDBRANCH  83  89
ENDBRANCH  81  83
ENDBRANCH  78  81
ENDBRANCH  75  78
ENDBRANCH  69  75
ENDBRANCH  67  69
BRANCH  67 118
ATOM    118  O   UNL     1     152.789 164.237 190.451  0.00  0.00    -0.379 OA
BRANCH 118 119
ATOM    119  C   UNL     1     154.101 164.072 189.923  0.00  0.00    +0.037 C 
ATOM    120  H   UNL     1     154.535 163.170 190.366  0.00  0.00    +0.052 HD
ATOM    121  H   UNL     1     154.059 163.937 188.836  0.00  0.00    +0.052 HD
ATOM    122  H   UNL     1     154.742 164.922 190.174  0.00  0.00    +0.052 HD
ENDBRANCH 118 119
ENDBRANCH  67 118
ENDBRANCH  64  67
ENDBRANCH  13  64
BRANCH   8 123
ATOM    123  O   UNL     1     146.857 166.554 187.420  0.00  0.00    -0.391 OA
ATOM    124  H   UNL     1     147.060 167.507 187.429  0.00  0.00    +0.210 HD
ENDBRANCH   8 123
BRANCH  15 125
ATOM    125  O   UNL     1     152.445 162.541 184.619  0.00  0.00    -0.379 OA
BRANCH 125 126
ATOM    126  C   UNL     1     151.707 162.154 183.467  0.00  0.00    +0.037 C 
ATOM    127  H   UNL     1     152.303 161.503 182.819  0.00  0.00    +0.052 HD
ATOM    128  H   UNL     1     150.827 161.596 183.799  0.00  0.00    +0.052 HD
ATOM    129  H   UNL     1     151.358 163.028 182.910  0.00  0.00    +0.052 HD
ENDBRANCH 125 126
ENDBRANCH  15 125
TORSDOF 27
ENDMDL
MODEL 4
REMARK VINA RESULT:      -5.3      3.076      7.863
REMARK  Name = Ulapualide A_conf2
REMARK  27 active torsions:
REMARK  status: ('A' for Active; 'I' for Inactive)
REMARK    1  A    between atoms: C_1  and  C_2
REMARK    2  A    between atoms: C_9  and  O_63
REMARK    3  A    between atoms: C_14  and  C_38
REMARK    4  A    between atoms: C_15  and  C_37
REMARK    5  A    between atoms: C_16  and  O_35
REMARK    6  A    between atoms: O_35  and  C_36
REMARK    7  A    between atoms: C_38  and  C_39
REMARK    8  A    between atoms: C_39  and  C_40
REMARK    9  A    between atoms: C_39  and  O_61
REMARK   10  A    between atoms: C_40  and  C_41
REMARK   11  A    between atoms: C_40  and  C_42
REMARK   12  A    between atoms: C_42  and  C_43
REMARK   13  A    between atoms: C_43  and  C_44
REMARK   14  A    between atoms: C_44  and  C_46
REMARK   15  A    between atoms: C_46  and  C_47
REMARK   16  A    between atoms: C_46  and  C_48
REMARK   17  A    between atoms: C_48  and  C_49
REMARK   18  A    between atoms: C_48  and  O_57
REMARK   19  A    between atoms: C_49  and  C_50
REMARK   20  A    between atoms: C_49  and  C_51
REMARK   21  A    between atoms: C_52  and  N_53
REMARK   22  A    between atoms: N_53  and  C_54
REMARK   23  A    between atoms: N_53  and  C_55
REMARK   24  A    between atoms: C_55  and  O_56
REMARK   25  A    between atoms: O_57  and  C_58
REMARK   26  A    between atoms: C_58  and  C_60
REMARK   27  A    between atoms: O_61  and  C_62
REMARK                            x       y       z     vdW  Elec       q    Type
REMARK                         _______ _______ _______ _____ _____    ______ ____
ROOT
ATOM      1  C   UNL     1     146.746 157.575 189.761  0.00  0.00    +0.008 C 
ATOM      2  C   UNL     1     145.726 157.343 188.642  0.00  0.00    +0.014 C 
ATOM      3  C   UNL     1     145.566 158.461 187.624  0.00  0.00    +0.134 C 
ATOM      4  O   UNL     1     145.982 158.319 186.472  0.00  0.00    -0.297 OA
ATOM      5  C   UNL     1     144.831 159.712 188.071  0.00  0.00    +0.006 C 
ATOM      6  C   UNL     1     144.290 160.523 186.896  0.00  0.00    -0.044 C 
ATOM      7  C   UNL     1     143.243 161.578 187.280  0.00  0.00    -0.026 C 
ATOM      8  C   UNL     1     143.709 162.584 188.342  0.00  0.00    +0.065 C 
ATOM      9  C   UNL     1     142.778 163.795 188.389  0.00  0.00    +0.071 C 
ATOM     10  C   UNL     1     143.415 164.946 189.122  0.00  0.00    +0.310 C 
ATOM     11  O   UNL     1     142.985 165.413 190.170  0.00  0.00    -0.251 OA
ATOM     12  O   UNL     1     144.480 165.422 188.420  0.00  0.00    -0.461 OA
ATOM     13  C   UNL     1     145.144 166.590 188.958  0.00  0.00    +0.110 C 
ATOM     14  C   UNL     1     145.622 167.461 187.755  0.00  0.00    +0.020 C 
ATOM     15  C   UNL     1     146.228 166.668 186.548  0.00  0.00    +0.068 C 
ATOM     16  C   UNL     1     147.671 166.160 186.765  0.00  0.00    -0.008 C 
ATOM     17  C   UNL     1     148.715 167.256 186.813  0.00  0.00    -0.077 C 
ATOM     18  C   UNL     1     150.045 167.101 186.732  0.00  0.00    -0.003 C 
ATOM     19  C   UNL     1     150.701 165.838 186.690  0.00  0.00    +0.220 A 
ATOM     20  N   UNL     1     150.195 164.661 187.032  0.00  0.00    -0.205 NA
ATOM     21  C   UNL     1     151.224 163.768 186.898  0.00  0.00    +0.164 A 
ATOM     22  C   UNL     1     152.342 164.416 186.448  0.00  0.00    +0.125 A 
ATOM     23  O   UNL     1     152.034 165.735 186.318  0.00  0.00    -0.443 OA
ATOM     24  C   UNL     1     151.167 162.242 187.227  0.00  0.00    +0.250 A 
ATOM     25  N   UNL     1     150.102 161.621 187.712  0.00  0.00    -0.203 NA
ATOM     26  C   UNL     1     150.519 160.322 187.879  0.00  0.00    +0.164 A 
ATOM     27  C   UNL     1     151.824 160.196 187.477  0.00  0.00    +0.125 A 
ATOM     28  O   UNL     1     152.255 161.415 187.053  0.00  0.00    -0.442 OA
ATOM     29  C   UNL     1     149.677 159.131 188.440  0.00  0.00    +0.249 A 
ATOM     30  N   UNL     1     148.420 159.209 188.848  0.00  0.00    -0.212 NA
ATOM     31  C   UNL     1     148.099 157.930 189.242  0.00  0.00    +0.083 A 
ATOM     32  C   UNL     1     149.192 157.114 189.068  0.00  0.00    +0.116 A 
ATOM     33  O   UNL     1     150.204 157.862 188.556  0.00  0.00    -0.442 OA
ATOM     34  H   UNL     1     146.846 156.604 190.270  0.00  0.00    +0.037 HD
ATOM     35  H   UNL     1     144.739 157.109 189.054  0.00  0.00    +0.035 HD
ATOM     36  H   UNL     1     146.027 156.451 188.074  0.00  0.00    +0.035 HD
ATOM     37  H   UNL     1     144.000 159.397 188.712  0.00  0.00    +0.034 HD
ATOM     38  H   UNL     1     145.529 160.326 188.647  0.00  0.00    +0.034 HD
ATOM     39  H   UNL     1     145.127 161.014 186.382  0.00  0.00    +0.027 HD
ATOM     40  H   UNL     1     143.832 159.850 186.158  0.00  0.00    +0.027 HD
ATOM     41  H   UNL     1     142.969 162.112 186.361  0.00  0.00    +0.029 HD
ATOM     42  H   UNL     1     142.341 161.061 187.634  0.00  0.00    +0.029 HD
ATOM     43  H   UNL     1     144.739 162.893 188.129  0.00  0.00    +0.060 HD
ATOM     44  H   UNL     1     141.839 163.550 188.902  0.00  0.00    +0.040 HD
ATOM     45  H   UNL     1     142.520 164.156 187.387  0.00  0.00    +0.040 HD
ATOM     46  H   UNL     1     144.402 167.184 189.509  0.00  0.00    +0.074 HD
ATOM     47  H   UNL     1     146.343 168.208 188.107  0.00  0.00    +0.036 HD
ATOM     48  H   UNL     1     145.586 165.803 186.343  0.00  0.00    +0.060 HD
ATOM     49  H   UNL     1     147.924 165.494 185.930  0.00  0.00    +0.033 HD
ATOM     50  H   UNL     1     147.728 165.547 187.662  0.00  0.00    +0.033 HD
ATOM     51  H   UNL     1     148.335 168.276 186.873  0.00  0.00    +0.057 HD
ATOM     52  H   UNL     1     150.681 167.979 186.712  0.00  0.00    +0.067 HD
ATOM     53  H   UNL     1     153.354 164.127 186.203  0.00  0.00    +0.105 HD
ATOM     54  H   UNL     1     152.536 159.386 187.434  0.00  0.00    +0.105 HD
ATOM     55  H   UNL     1     149.399 156.068 189.223  0.00  0.00    +0.105 HD
ENDROOT
BRANCH   1  56
ATOM     56  C   UNL     1     146.263 158.541 190.844  0.00  0.00    -0.056 C 
ATOM     57  H   UNL     1     145.515 159.230 190.433  0.00  0.00    +0.024 HD
ATOM     58  H   UNL     1     145.788 158.034 191.687  0.00  0.00    +0.024 HD
ATOM     59  H   UNL     1     147.092 159.147 191.230  0.00  0.00    +0.024 HD
ENDBRANCH   1  56
BRANCH  14  60
ATOM     60  C   UNL     1     144.395 168.270 187.263  0.00  0.00    -0.057 C 
ATOM     61  H   UNL     1     143.612 168.316 188.027  0.00  0.00    +0.023 HD
ATOM     62  H   UNL     1     143.941 167.801 186.384  0.00  0.00    +0.023 HD
ATOM     63  H   UNL     1     144.678 169.295 186.996  0.00  0.00    +0.023 HD
ENDBRANCH  14  60
BRANCH  13  64
ATOM     64  C   UNL     1     146.195 166.128 189.991  0.00  0.00    +0.011 C 
ATOM     65  H   UNL     1     145.946 165.105 190.290  0.00  0.00    +0.033 HD
ATOM     66  H   UNL     1     147.184 166.071 189.543  0.00  0.00    +0.033 HD
BRANCH  64  67
ATOM     67  C   UNL     1     146.244 167.030 191.239  0.00  0.00    +0.064 C 
ATOM     68  H   UNL     1     146.601 166.429 192.087  0.00  0.00    +0.060 HD
BRANCH  67  69
ATOM     69  C   UNL     1     147.197 168.251 191.084  0.00  0.00    -0.017 C 
ATOM     70  H   UNL     1     146.593 169.114 190.778  0.00  0.00    +0.032 HD
BRANCH  69  71
ATOM     71  C   UNL     1     147.824 168.624 192.436  0.00  0.00    -0.060 C 
ATOM     72  H   UNL     1     148.738 168.047 192.614  0.00  0.00    +0.023 HD
ATOM     73  H   UNL     1     148.075 169.688 192.496  0.00  0.00    +0.023 HD
ATOM     74  H   UNL     1     147.132 168.402 193.257  0.00  0.00    +0.023 HD
ENDBRANCH  69  71
BRANCH  69  75
ATOM     75  C   UNL     1     148.317 168.098 190.030  0.00  0.00    -0.041 C 
ATOM     76  H   UNL     1     148.348 168.971 189.365  0.00  0.00    +0.027 HD
ATOM     77  H   UNL     1     148.062 167.246 189.385  0.00  0.00    +0.027 HD
BRANCH  75  78
ATOM     78  C   UNL     1     149.704 167.859 190.629  0.00  0.00    +0.007 C 
ATOM     79  H   UNL     1     150.425 168.556 190.194  0.00  0.00    +0.034 HD
ATOM     80  H   UNL     1     149.658 168.021 191.710  0.00  0.00    +0.034 HD
BRANCH  78  81
ATOM     81  C   UNL     1     150.216 166.445 190.375  0.00  0.00    +0.140 C 
ATOM     82  O   UNL     1     149.450 165.484 190.255  0.00  0.00    -0.297 OA
BRANCH  81  83
ATOM     83  C   UNL     1     151.720 166.223 190.225  0.00  0.00    +0.052 C 
ATOM     84  H   UNL     1     151.830 165.479 189.426  0.00  0.00    +0.041 HD
BRANCH  83  85
ATOM     85  C   UNL     1     152.399 167.492 189.705  0.00  0.00    -0.052 C 
ATOM     86  H   UNL     1     152.638 167.382 188.643  0.00  0.00    +0.024 HD
ATOM     87  H   UNL     1     151.768 168.379 189.813  0.00  0.00    +0.024 HD
ATOM     88  H   UNL     1     153.335 167.677 190.239  0.00  0.00    +0.024 HD
ENDBRANCH  83  85
BRANCH  83  89
ATOM     89  C   UNL     1     152.429 165.675 191.481  0.00  0.00    +0.118 C 
ATOM     90  H   UNL     1     151.946 164.708 191.681  0.00  0.00    +0.075 HD
BRANCH  89  91
ATOM     91  C   UNL     1     152.307 166.511 192.790  0.00  0.00    +0.014 C 
ATOM     92  H   UNL     1     151.814 167.454 192.506  0.00  0.00    +0.038 HD
BRANCH  91  93
ATOM     93  C   UNL     1     153.679 166.921 193.337  0.00  0.00    -0.056 C 
ATOM     94  H   UNL     1     154.205 167.615 192.674  0.00  0.00    +0.024 HD
ATOM     95  H   UNL     1     154.321 166.043 193.478  0.00  0.00    +0.024 HD
ATOM     96  H   UNL     1     153.575 167.406 194.314  0.00  0.00    +0.024 HD
ENDBRANCH  91  93
BRANCH  91  97
ATOM     97  C   UNL     1     151.360 165.906 193.811  0.00  0.00    -0.064 C 
ATOM     98  C   UNL     1     150.157 166.365 194.179  0.00  0.00    -0.010 C 
ATOM     99  H   UNL     1     151.717 164.981 194.259  0.00  0.00    +0.059 HD
ATOM    100  H   UNL     1     149.787 167.299 193.757  0.00  0.00    +0.078 HD
BRANCH  98 101
ATOM    101  N   UNL     1     149.266 165.817 195.090  0.00  0.00    -0.317 N 
BRANCH 101 102
ATOM    102  C   UNL     1     147.821 165.800 194.880  0.00  0.00    +0.002 C 
ATOM    103  H   UNL     1     147.348 166.651 195.383  0.00  0.00    +0.043 HD
ATOM    104  H   UNL     1     147.554 165.858 193.819  0.00  0.00    +0.043 HD
ATOM    105  H   UNL     1     147.390 164.871 195.275  0.00  0.00    +0.043 HD
ENDBRANCH 101 102
BRANCH 101 106
ATOM    106  C   UNL     1     149.723 165.236 196.340  0.00  0.00    +0.110 C 
ATOM    107  H   UNL     1     150.578 164.566 196.186  0.00  0.00    +0.077 HD
ATOM    108  H   UNL     1     148.941 164.659 196.847  0.00  0.00    +0.077 HD
BRANCH 106 109
ATOM    109  O   UNL     1     150.118 166.305 197.170  0.00  0.00    -0.377 OA
ATOM    110  H   UNL     1     149.929 165.948 198.056  0.00  0.00    +0.211 HD
ENDBRANCH 106 109
ENDBRANCH 101 106
ENDBRANCH  98 101
ENDBRANCH  91  97
ENDBRANCH  89  91
BRANCH  89 111
ATOM    111  O   UNL     1     153.821 165.423 191.173  0.00  0.00    -0.460 OA
BRANCH 111 112
ATOM    112  C   UNL     1     154.092 164.384 190.336  0.00  0.00    +0.304 C 
ATOM    113  O   UNL     1     153.308 163.501 190.014  0.00  0.00    -0.251 OA
BRANCH 112 114
ATOM    114  C   UNL     1     155.514 164.467 189.873  0.00  0.00    +0.033 C 
ATOM    115  H   UNL     1     155.563 164.283 188.797  0.00  0.00    +0.034 HD
ATOM    116  H   UNL     1     156.122 163.740 190.414  0.00  0.00    +0.034 HD
ATOM    117  H   UNL     1     155.904 165.468 190.076  0.00  0.00    +0.034 HD
ENDBRANCH 112 114
ENDBRANCH 111 112
ENDBRANCH  89 111
ENDBRANCH  83  89
ENDBRANCH  81  83
ENDBRANCH  78  81
ENDBRANCH  75  78
ENDBRANCH  69  75
ENDBRANCH  67  69
BRANCH  67 118
ATOM    118  O   UNL     1     144.907 167.468 191.511  0.00  0.00    -0.379 OA
BRANCH 118 119
ATOM    119  C   UNL     1     144.369 166.927 192.713  0.00  0.00    +0.037 C 
ATOM    120  H   UNL     1     143.351 167.308 192.831  0.00  0.00    +0.052 HD
ATOM    121  H   UNL     1     144.325 165.834 192.650  0.00  0.00    +0.052 HD
ATOM    122  H   UNL     1     144.955 167.233 193.584  0.00  0.00    +0.052 HD
ENDBRANCH 118 119
ENDBRANCH  67 118
ENDBRANCH  64  67
ENDBRANCH  13  64
BRANCH   8 123
ATOM    123  O   UNL     1     143.711 161.949 189.622  0.00  0.00    -0.391 OA
ATOM    124  H   UNL     1     144.322 162.432 190.208  0.00  0.00    +0.210 HD
ENDBRANCH   8 123
BRANCH  15 125
ATOM    125  O   UNL     1     146.192 167.513 185.373  0.00  0.00    -0.379 OA
BRANCH 125 126
ATOM    126  C   UNL     1     146.049 166.802 184.150  0.00  0.00    +0.037 C 
ATOM    127  H   UNL     1     145.005 166.521 183.979  0.00  0.00    +0.052 HD
ATOM    128  H   UNL     1     146.366 167.459 183.335  0.00  0.00    +0.052 HD
ATOM    129  H   UNL     1     146.689 165.915 184.132  0.00  0.00    +0.052 HD
ENDBRANCH 125 126
ENDBRANCH  15 125
TORSDOF 27
ENDMDL
MODEL 5
REMARK VINA RESULT:      -5.3      2.206      5.663
REMARK  Name = Ulapualide A_conf2
REMARK  27 active torsions:
REMARK  status: ('A' for Active; 'I' for Inactive)
REMARK    1  A    between atoms: C_1  and  C_2
REMARK    2  A    between atoms: C_9  and  O_63
REMARK    3  A    between atoms: C_14  and  C_38
REMARK    4  A    between atoms: C_15  and  C_37
REMARK    5  A    between atoms: C_16  and  O_35
REMARK    6  A    between atoms: O_35  and  C_36
REMARK    7  A    between atoms: C_38  and  C_39
REMARK    8  A    between atoms: C_39  and  C_40
REMARK    9  A    between atoms: C_39  and  O_61
REMARK   10  A    between atoms: C_40  and  C_41
REMARK   11  A    between atoms: C_40  and  C_42
REMARK   12  A    between atoms: C_42  and  C_43
REMARK   13  A    between atoms: C_43  and  C_44
REMARK   14  A    between atoms: C_44  and  C_46
REMARK   15  A    between atoms: C_46  and  C_47
REMARK   16  A    between atoms: C_46  and  C_48
REMARK   17  A    between atoms: C_48  and  C_49
REMARK   18  A    between atoms: C_48  and  O_57
REMARK   19  A    between atoms: C_49  and  C_50
REMARK   20  A    between atoms: C_49  and  C_51
REMARK   21  A    between atoms: C_52  and  N_53
REMARK   22  A    between atoms: N_53  and  C_54
REMARK   23  A    between atoms: N_53  and  C_55
REMARK   24  A    between atoms: C_55  and  O_56
REMARK   25  A    between atoms: O_57  and  C_58
REMARK   26  A    between atoms: C_58  and  C_60
REMARK   27  A    between atoms: O_61  and  C_62
REMARK                            x       y       z     vdW  Elec       q    Type
REMARK                         _______ _______ _______ _____ _____    ______ ____
ROOT
ATOM      1  C   UNL     1     149.185 161.601 184.746  0.00  0.00    +0.008 C 
ATOM      2  C   UNL     1     149.931 160.425 185.385  0.00  0.00    +0.014 C 
ATOM      3  C   UNL     1     150.197 160.517 186.879  0.00  0.00    +0.134 C 
ATOM      4  O   UNL     1     149.584 159.792 187.666  0.00  0.00    -0.297 OA
ATOM      5  C   UNL     1     151.273 161.484 187.338  0.00  0.00    +0.006 C 
ATOM      6  C   UNL     1     151.804 161.149 188.730  0.00  0.00    -0.044 C 
ATOM      7  C   UNL     1     153.122 161.847 189.092  0.00  0.00    -0.026 C 
ATOM      8  C   UNL     1     153.085 163.378 188.985  0.00  0.00    +0.065 C 
ATOM      9  C   UNL     1     154.277 164.004 189.708  0.00  0.00    +0.071 C 
ATOM     10  C   UNL     1     154.060 165.474 189.949  0.00  0.00    +0.310 C 
ATOM     11  O   UNL     1     154.749 166.358 189.455  0.00  0.00    -0.251 OA
ATOM     12  O   UNL     1     153.046 165.663 190.838  0.00  0.00    -0.461 OA
ATOM     13  C   UNL     1     152.776 167.027 191.239  0.00  0.00    +0.110 C 
ATOM     14  C   UNL     1     152.342 167.007 192.736  0.00  0.00    +0.020 C 
ATOM     15  C   UNL     1     151.381 165.838 193.143  0.00  0.00    +0.068 C 
ATOM     16  C   UNL     1     149.910 166.028 192.709  0.00  0.00    -0.008 C 
ATOM     17  C   UNL     1     149.184 167.133 193.446  0.00  0.00    -0.077 C 
ATOM     18  C   UNL     1     147.859 167.350 193.464  0.00  0.00    -0.003 C 
ATOM     19  C   UNL     1     146.919 166.613 192.689  0.00  0.00    +0.220 A 
ATOM     20  N   UNL     1     147.172 165.854 191.632  0.00  0.00    -0.205 NA
ATOM     21  C   UNL     1     145.949 165.426 191.188  0.00  0.00    +0.164 A 
ATOM     22  C   UNL     1     144.966 165.914 192.005  0.00  0.00    +0.125 A 
ATOM     23  O   UNL     1     145.560 166.679 192.960  0.00  0.00    -0.443 OA
ATOM     24  C   UNL     1     145.686 164.539 189.930  0.00  0.00    +0.250 A 
ATOM     25  N   UNL     1     146.631 164.107 189.108  0.00  0.00    -0.203 NA
ATOM     26  C   UNL     1     145.944 163.412 188.143  0.00  0.00    +0.164 A 
ATOM     27  C   UNL     1     144.601 163.434 188.419  0.00  0.00    +0.125 A 
ATOM     28  O   UNL     1     144.417 164.149 189.562  0.00  0.00    -0.442 OA
ATOM     29  C   UNL     1     146.549 162.688 186.897  0.00  0.00    +0.249 A 
ATOM     30  N   UNL     1     147.835 162.648 186.586  0.00  0.00    -0.212 NA
ATOM     31  C   UNL     1     147.895 161.903 185.430  0.00  0.00    +0.083 A 
ATOM     32  C   UNL     1     146.623 161.523 185.071  0.00  0.00    +0.116 A 
ATOM     33  O   UNL     1     145.756 162.012 185.994  0.00  0.00    -0.442 OA
ATOM     34  H   UNL     1     148.934 161.268 183.727  0.00  0.00    +0.037 HD
ATOM     35  H   UNL     1     150.885 160.244 184.876  0.00  0.00    +0.035 HD
ATOM     36  H   UNL     1     149.339 159.511 185.233  0.00  0.00    +0.035 HD
ATOM     37  H   UNL     1     152.093 161.438 186.613  0.00  0.00    +0.034 HD
ATOM     38  H   UNL     1     150.843 162.490 187.345  0.00  0.00    +0.034 HD
ATOM     39  H   UNL     1     151.041 161.405 189.478  0.00  0.00    +0.027 HD
ATOM     40  H   UNL     1     151.964 160.065 188.817  0.00  0.00    +0.027 HD
ATOM     41  H   UNL     1     153.370 161.556 190.121  0.00  0.00    +0.029 HD
ATOM     42  H   UNL     1     153.916 161.452 188.445  0.00  0.00    +0.029 HD
ATOM     43  H   UNL     1     152.140 163.754 189.394  0.00  0.00    +0.060 HD
ATOM     44  H   UNL     1     155.197 163.893 189.119  0.00  0.00    +0.040 HD
ATOM     45  H   UNL     1     154.455 163.540 190.685  0.00  0.00    +0.040 HD
ATOM     46  H   UNL     1     153.717 167.593 191.185  0.00  0.00    +0.074 HD
ATOM     47  H   UNL     1     151.887 167.969 193.000  0.00  0.00    +0.036 HD
ATOM     48  H   UNL     1     151.755 164.909 192.695  0.00  0.00    +0.060 HD
ATOM     49  H   UNL     1     149.377 165.088 192.905  0.00  0.00    +0.033 HD
ATOM     50  H   UNL     1     149.847 166.187 191.635  0.00  0.00    +0.033 HD
ATOM     51  H   UNL     1     149.803 167.788 194.059  0.00  0.00    +0.057 HD
ATOM     52  H   UNL     1     147.460 168.141 194.088  0.00  0.00    +0.067 HD
ATOM     53  H   UNL     1     143.889 165.839 192.042  0.00  0.00    +0.105 HD
ATOM     54  H   UNL     1     143.717 163.034 187.948  0.00  0.00    +0.105 HD
ATOM     55  H   UNL     1     146.196 160.940 184.272  0.00  0.00    +0.105 HD
ENDROOT
BRANCH   1  56
ATOM     56  C   UNL     1     150.051 162.847 184.553  0.00  0.00    -0.056 C 
ATOM     57  H   UNL     1     151.111 162.571 184.511  0.00  0.00    +0.024 HD
ATOM     58  H   UNL     1     149.832 163.379 183.624  0.00  0.00    +0.024 HD
ATOM     59  H   UNL     1     149.925 163.548 185.387  0.00  0.00    +0.024 HD
ENDBRANCH   1  56
BRANCH  14  60
ATOM     60  C   UNL     1     153.636 166.914 193.584  0.00  0.00    -0.057 C 
ATOM     61  H   UNL     1     154.531 166.921 192.953  0.00  0.00    +0.023 HD
ATOM     62  H   UNL     1     153.667 165.981 194.155  0.00  0.00    +0.023 HD
ATOM     63  H   UNL     1     153.706 167.750 194.291  0.00  0.00    +0.023 HD
ENDBRANCH  14  60
BRANCH  13  64
ATOM     64  C   UNL     1     151.820 167.664 190.207  0.00  0.00    +0.011 C 
ATOM     65  H   UNL     1     150.826 167.724 190.661  0.00  0.00    +0.033 HD
ATOM     66  H   UNL     1     152.107 168.691 189.991  0.00  0.00    +0.033 HD
BRANCH  64  67
ATOM     67  C   UNL     1     151.736 166.863 188.893  0.00  0.00    +0.064 C 
ATOM     68  H   UNL     1     152.233 165.896 189.045  0.00  0.00    +0.060 HD
BRANCH  67  69
ATOM     69  C   UNL     1     150.277 166.584 188.429  0.00  0.00    -0.017 C 
ATOM     70  H   UNL     1     150.208 166.834 187.364  0.00  0.00    +0.032 HD
BRANCH  69  71
ATOM     71  C   UNL     1     149.950 165.087 188.541  0.00  0.00    -0.060 C 
ATOM     72  H   UNL     1     150.655 164.583 189.211  0.00  0.00    +0.023 HD
ATOM     73  H   UNL     1     148.937 164.913 188.917  0.00  0.00    +0.023 HD
ATOM     74  H   UNL     1     150.026 164.602 187.561  0.00  0.00    +0.023 HD
ENDBRANCH  69  71
BRANCH  69  75
ATOM     75  C   UNL     1     149.177 167.399 189.148  0.00  0.00    -0.041 C 
ATOM     76  H   UNL     1     149.455 168.459 189.207  0.00  0.00    +0.027 HD
ATOM     77  H   UNL     1     149.122 167.051 190.188  0.00  0.00    +0.027 HD
BRANCH  75  78
ATOM     78  C   UNL     1     147.792 167.264 188.513  0.00  0.00    +0.007 C 
ATOM     79  H   UNL     1     147.795 166.454 187.778  0.00  0.00    +0.034 HD
ATOM     80  H   UNL     1     147.063 167.034 189.295  0.00  0.00    +0.034 HD
BRANCH  78  81
ATOM     81  C   UNL     1     147.349 168.535 187.798  0.00  0.00    +0.140 C 
ATOM     82  O   UNL     1     147.960 168.983 186.822  0.00  0.00    -0.297 OA
BRANCH  81  83
ATOM     83  C   UNL     1     146.088 169.250 188.281  0.00  0.00    +0.052 C 
ATOM     84  H   UNL     1     145.371 169.175 187.454  0.00  0.00    +0.041 HD
BRANCH  83  85
ATOM     85  C   UNL     1     145.455 168.489 189.448  0.00  0.00    -0.052 C 
ATOM     86  H   UNL     1     146.231 168.160 190.147  0.00  0.00    +0.024 HD
ATOM     87  H   UNL     1     144.742 169.100 190.008  0.00  0.00    +0.024 HD
ATOM     88  H   UNL     1     144.930 167.599 189.091  0.00  0.00    +0.024 HD
ENDBRANCH  83  85
BRANCH  83  89
ATOM     89  C   UNL     1     146.269 170.746 188.612  0.00  0.00    +0.118 C 
ATOM     90  H   UNL     1     147.313 170.971 188.348  0.00  0.00    +0.075 HD
BRANCH  89  91
ATOM     91  C   UNL     1     146.087 171.173 190.099  0.00  0.00    +0.014 C 
ATOM     92  H   UNL     1     145.806 170.261 190.648  0.00  0.00    +0.038 HD
BRANCH  91  93
ATOM     93  C   UNL     1     144.904 172.133 190.277  0.00  0.00    -0.056 C 
ATOM     94  H   UNL     1     145.147 173.158 189.978  0.00  0.00    +0.024 HD
ATOM     95  H   UNL     1     144.577 172.159 191.323  0.00  0.00    +0.024 HD
ATOM     96  H   UNL     1     144.048 171.804 189.678  0.00  0.00    +0.024 HD
ENDBRANCH  91  93
BRANCH  91  97
ATOM     97  C   UNL     1     147.378 171.609 190.769  0.00  0.00    -0.064 C 
ATOM     98  C   UNL     1     148.142 170.898 191.608  0.00  0.00    -0.010 C 
ATOM     99  H   UNL     1     147.707 172.611 190.498  0.00  0.00    +0.059 HD
ATOM    100  H   UNL     1     147.823 169.900 191.908  0.00  0.00    +0.078 HD
BRANCH  98 101
ATOM    101  N   UNL     1     149.334 171.265 192.212  0.00  0.00    -0.317 N 
BRANCH 101 102
ATOM    102  C   UNL     1     150.530 170.426 192.194  0.00  0.00    +0.002 C 
ATOM    103  H   UNL     1     150.525 169.767 191.318  0.00  0.00    +0.043 HD
ATOM    104  H   UNL     1     151.452 171.017 192.153  0.00  0.00    +0.043 HD
ATOM    105  H   UNL     1     150.575 169.810 193.101  0.00  0.00    +0.043 HD
ENDBRANCH 101 102
BRANCH 101 106
ATOM    106  C   UNL     1     149.464 172.521 192.930  0.00  0.00    +0.110 C 
ATOM    107  H   UNL     1     149.151 173.373 192.315  0.00  0.00    +0.077 HD
ATOM    108  H   UNL     1     150.491 172.714 193.260  0.00  0.00    +0.077 HD
BRANCH 106 109
ATOM    109  O   UNL     1     148.625 172.435 194.061  0.00  0.00    -0.377 OA
ATOM    110  H   UNL     1     148.227 173.325 194.079  0.00  0.00    +0.211 HD
ENDBRANCH 106 109
ENDBRANCH 101 106
ENDBRANCH  98 101
ENDBRANCH  91  97
ENDBRANCH  89  91
BRANCH  89 111
ATOM    111  O   UNL     1     145.413 171.534 187.753  0.00  0.00    -0.460 OA
BRANCH 111 112
ATOM    112  C   UNL     1     145.992 172.120 186.668  0.00  0.00    +0.304 C 
ATOM    113  O   UNL     1     146.392 171.538 185.670  0.00  0.00    -0.251 OA
BRANCH 112 114
ATOM    114  C   UNL     1     146.086 173.599 186.885  0.00  0.00    +0.033 C 
ATOM    115  H   UNL     1     145.181 174.085 186.515  0.00  0.00    +0.034 HD
ATOM    116  H   UNL     1     146.968 173.992 186.374  0.00  0.00    +0.034 HD
ATOM    117  H   UNL     1     146.183 173.805 187.954  0.00  0.00    +0.034 HD
ENDBRANCH 112 114
ENDBRANCH 111 112
ENDBRANCH  89 111
ENDBRANCH  83  89
ENDBRANCH  81  83
ENDBRANCH  78  81
ENDBRANCH  75  78
ENDBRANCH  69  75
ENDBRANCH  67  69
BRANCH  67 118
ATOM    118  O   UNL     1     152.450 167.599 187.891  0.00  0.00    -0.379 OA
BRANCH 118 119
ATOM    119  C   UNL     1     152.758 166.825 186.736  0.00  0.00    +0.037 C 
ATOM    120  H   UNL     1     152.291 167.305 185.871  0.00  0.00    +0.052 HD
ATOM    121  H   UNL     1     153.841 166.799 186.575  0.00  0.00    +0.052 HD
ATOM    122  H   UNL     1     152.363 165.808 186.821  0.00  0.00    +0.052 HD
ENDBRANCH 118 119
ENDBRANCH  67 118
ENDBRANCH  64  67
ENDBRANCH  13  64
BRANCH   8 123
ATOM    123  O   UNL     1     153.129 163.753 187.606  0.00  0.00    -0.391 OA
ATOM    124  H   UNL     1     154.061 163.776 187.320  0.00  0.00    +0.210 HD
ENDBRANCH   8 123
BRANCH  15 125
ATOM    125  O   UNL     1     151.437 165.670 194.580  0.00  0.00    -0.379 OA
BRANCH 125 126
ATOM    126  C   UNL     1     150.658 164.586 195.069  0.00  0.00    +0.037 C 
ATOM    127  H   UNL     1     150.665 163.749 194.363  0.00  0.00    +0.052 HD
ATOM    128  H   UNL     1     151.101 164.246 196.009  0.00  0.00    +0.052 HD
ATOM    129  H   UNL     1     149.632 164.899 195.276  0.00  0.00    +0.052 HD
ENDBRANCH 125 126
ENDBRANCH  15 125
TORSDOF 27
ENDMDL
MODEL 6
REMARK VINA RESULT:      -5.3      2.158      6.354
REMARK  Name = Ulapualide A_conf2
REMARK  27 active torsions:
REMARK  status: ('A' for Active; 'I' for Inactive)
REMARK    1  A    between atoms: C_1  and  C_2
REMARK    2  A    between atoms: C_9  and  O_63
REMARK    3  A    between atoms: C_14  and  C_38
REMARK    4  A    between atoms: C_15  and  C_37
REMARK    5  A    between atoms: C_16  and  O_35
REMARK    6  A    between atoms: O_35  and  C_36
REMARK    7  A    between atoms: C_38  and  C_39
REMARK    8  A    between atoms: C_39  and  C_40
REMARK    9  A    between atoms: C_39  and  O_61
REMARK   10  A    between atoms: C_40  and  C_41
REMARK   11  A    between atoms: C_40  and  C_42
REMARK   12  A    between atoms: C_42  and  C_43
REMARK   13  A    between atoms: C_43  and  C_44
REMARK   14  A    between atoms: C_44  and  C_46
REMARK   15  A    between atoms: C_46  and  C_47
REMARK   16  A    between atoms: C_46  and  C_48
REMARK   17  A    between atoms: C_48  and  C_49
REMARK   18  A    between atoms: C_48  and  O_57
REMARK   19  A    between atoms: C_49  and  C_50
REMARK   20  A    between atoms: C_49  and  C_51
REMARK   21  A    between atoms: C_52  and  N_53
REMARK   22  A    between atoms: N_53  and  C_54
REMARK   23  A    between atoms: N_53  and  C_55
REMARK   24  A    between atoms: C_55  and  O_56
REMARK   25  A    between atoms: O_57  and  C_58
REMARK   26  A    between atoms: C_58  and  C_60
REMARK   27  A    between atoms: O_61  and  C_62
REMARK                            x       y       z     vdW  Elec       q    Type
REMARK                         _______ _______ _______ _____ _____    ______ ____
ROOT
ATOM      1  C   UNL     1     151.872 160.726 187.504  0.00  0.00    +0.008 C 
ATOM      2  C   UNL     1     151.903 161.121 186.025  0.00  0.00    +0.014 C 
ATOM      3  C   UNL     1     151.356 162.496 185.674  0.00  0.00    +0.134 C 
ATOM      4  O   UNL     1     152.118 163.399 185.325  0.00  0.00    -0.297 OA
ATOM      5  C   UNL     1     149.850 162.680 185.719  0.00  0.00    +0.006 C 
ATOM      6  C   UNL     1     149.382 163.877 184.895  0.00  0.00    -0.044 C 
ATOM      7  C   UNL     1     147.875 163.898 184.603  0.00  0.00    -0.026 C 
ATOM      8  C   UNL     1     146.982 163.838 185.849  0.00  0.00    +0.065 C 
ATOM      9  C   UNL     1     145.546 164.238 185.510  0.00  0.00    +0.071 C 
ATOM     10  C   UNL     1     144.760 164.561 186.753  0.00  0.00    +0.310 C 
ATOM     11  O   UNL     1     143.786 163.923 187.131  0.00  0.00    -0.251 OA
ATOM     12  O   UNL     1     145.248 165.688 187.341  0.00  0.00    -0.461 OA
ATOM     13  C   UNL     1     144.537 166.175 188.504  0.00  0.00    +0.110 C 
ATOM     14  C   UNL     1     144.593 167.733 188.477  0.00  0.00    +0.020 C 
ATOM     15  C   UNL     1     145.968 168.351 188.051  0.00  0.00    +0.068 C 
ATOM     16  C   UNL     1     147.059 168.321 189.146  0.00  0.00    -0.008 C 
ATOM     17  C   UNL     1     146.792 169.246 190.313  0.00  0.00    -0.077 C 
ATOM     18  C   UNL     1     147.667 169.616 191.262  0.00  0.00    -0.003 C 
ATOM     19  C   UNL     1     148.988 169.097 191.374  0.00  0.00    +0.220 A 
ATOM     20  N   UNL     1     149.466 167.993 190.815  0.00  0.00    -0.205 NA
ATOM     21  C   UNL     1     150.749 167.875 191.278  0.00  0.00    +0.164 A 
ATOM     22  C   UNL     1     151.043 168.931 192.098  0.00  0.00    +0.125 A 
ATOM     23  O   UNL     1     149.934 169.715 192.180  0.00  0.00    -0.443 OA
ATOM     24  C   UNL     1     151.738 166.710 190.959  0.00  0.00    +0.250 A 
ATOM     25  N   UNL     1     151.441 165.660 190.208  0.00  0.00    -0.203 NA
ATOM     26  C   UNL     1     152.579 164.893 190.237  0.00  0.00    +0.164 A 
ATOM     27  C   UNL     1     153.539 165.510 190.998  0.00  0.00    +0.125 A 
ATOM     28  O   UNL     1     153.019 166.678 191.466  0.00  0.00    -0.442 OA
ATOM     29  C   UNL     1     152.803 163.516 189.533  0.00  0.00    +0.249 A 
ATOM     30  N   UNL     1     151.904 162.879 188.798  0.00  0.00    -0.212 NA
ATOM     31  C   UNL     1     152.540 161.731 188.382  0.00  0.00    +0.083 A 
ATOM     32  C   UNL     1     153.815 161.708 188.896  0.00  0.00    +0.116 A 
ATOM     33  O   UNL     1     153.999 162.837 189.628  0.00  0.00    -0.442 OA
ATOM     34  H   UNL     1     152.465 159.802 187.572  0.00  0.00    +0.037 HD
ATOM     35  H   UNL     1     151.384 160.378 185.410  0.00  0.00    +0.035 HD
ATOM     36  H   UNL     1     152.948 161.110 185.681  0.00  0.00    +0.035 HD
ATOM     37  H   UNL     1     149.392 161.764 185.329  0.00  0.00    +0.034 HD
ATOM     38  H   UNL     1     149.558 162.821 186.764  0.00  0.00    +0.034 HD
ATOM     39  H   UNL     1     149.664 164.803 185.413  0.00  0.00    +0.027 HD
ATOM     40  H   UNL     1     149.910 163.894 183.931  0.00  0.00    +0.027 HD
ATOM     41  H   UNL     1     147.667 164.819 184.044  0.00  0.00    +0.029 HD
ATOM     42  H   UNL     1     147.637 163.056 183.938  0.00  0.00    +0.029 HD
ATOM     43  H   UNL     1     147.394 164.488 186.629  0.00  0.00    +0.060 HD
ATOM     44  H   UNL     1     145.026 163.427 184.985  0.00  0.00    +0.040 HD
ATOM     45  H   UNL     1     145.508 165.124 184.866  0.00  0.00    +0.040 HD
ATOM     46  H   UNL     1     143.480 165.890 188.405  0.00  0.00    +0.074 HD
ATOM     47  H   UNL     1     144.297 168.128 189.456  0.00  0.00    +0.036 HD
ATOM     48  H   UNL     1     146.341 167.800 187.179  0.00  0.00    +0.060 HD
ATOM     49  H   UNL     1     148.007 168.628 188.685  0.00  0.00    +0.033 HD
ATOM     50  H   UNL     1     147.216 167.304 189.499  0.00  0.00    +0.033 HD
ATOM     51  H   UNL     1     145.797 169.691 190.355  0.00  0.00    +0.057 HD
ATOM     52  H   UNL     1     147.365 170.340 192.010  0.00  0.00    +0.067 HD
ATOM     53  H   UNL     1     151.904 169.247 192.667  0.00  0.00    +0.105 HD
ATOM     54  H   UNL     1     154.551 165.278 191.289  0.00  0.00    +0.105 HD
ATOM     55  H   UNL     1     154.655 161.036 188.831  0.00  0.00    +0.105 HD
ENDROOT
BRANCH   1  56
ATOM     56  C   UNL     1     150.481 160.342 188.010  0.00  0.00    -0.056 C 
ATOM     57  H   UNL     1     149.734 161.060 187.651  0.00  0.00    +0.024 HD
ATOM     58  H   UNL     1     150.157 159.358 187.662  0.00  0.00    +0.024 HD
ATOM     59  H   UNL     1     150.444 160.348 189.106  0.00  0.00    +0.024 HD
ENDBRANCH   1  56
BRANCH  14  60
ATOM     60  C   UNL     1     143.498 168.212 187.491  0.00  0.00    -0.057 C 
ATOM     61  H   UNL     1     142.542 168.374 188.000  0.00  0.00    +0.023 HD
ATOM     62  H   UNL     1     143.312 167.462 186.715  0.00  0.00    +0.023 HD
ATOM     63  H   UNL     1     143.789 169.147 186.999  0.00  0.00    +0.023 HD
ENDBRANCH  14  60
BRANCH  13  64
ATOM     64  C   UNL     1     145.074 165.444 189.754  0.00  0.00    +0.011 C 
ATOM     65  H   UNL     1     144.609 164.453 189.790  0.00  0.00    +0.033 HD
ATOM     66  H   UNL     1     146.144 165.264 189.670  0.00  0.00    +0.033 HD
BRANCH  64  67
ATOM     67  C   UNL     1     144.778 166.199 191.063  0.00  0.00    +0.064 C 
ATOM     68  H   UNL     1     145.202 167.209 190.985  0.00  0.00    +0.060 HD
BRANCH  67  69
ATOM     69  C   UNL     1     143.258 166.341 191.367  0.00  0.00    -0.017 C 
ATOM     70  H   UNL     1     142.720 166.319 190.412  0.00  0.00    +0.032 HD
BRANCH  69  71
ATOM     71  C   UNL     1     142.751 165.136 192.174  0.00  0.00    -0.060 C 
ATOM     72  H   UNL     1     143.586 164.596 192.634  0.00  0.00    +0.023 HD
ATOM     73  H   UNL     1     142.057 165.432 192.966  0.00  0.00    +0.023 HD
ATOM     74  H   UNL     1     142.224 164.430 191.521  0.00  0.00    +0.023 HD
ENDBRANCH  69  71
BRANCH  69  75
ATOM     75  C   UNL     1     142.836 167.645 192.082  0.00  0.00    -0.041 C 
ATOM     76  H   UNL     1     143.268 167.693 193.090  0.00  0.00    +0.027 HD
ATOM     77  H   UNL     1     141.748 167.615 192.229  0.00  0.00    +0.027 HD
BRANCH  75  78
ATOM     78  C   UNL     1     143.189 168.917 191.310  0.00  0.00    +0.007 C 
ATOM     79  H   UNL     1     143.602 169.666 191.991  0.00  0.00    +0.034 HD
ATOM     80  H   UNL     1     143.936 168.676 190.548  0.00  0.00    +0.034 HD
BRANCH  78  81
ATOM     81  C   UNL     1     141.979 169.538 190.619  0.00  0.00    +0.140 C 
ATOM     82  O   UNL     1     141.097 168.846 190.101  0.00  0.00    -0.297 OA
BRANCH  81  83
ATOM     83  C   UNL     1     141.838 171.059 190.607  0.00  0.00    +0.052 C 
ATOM     84  H   UNL     1     141.090 171.280 189.836  0.00  0.00    +0.041 HD
BRANCH  83  85
ATOM     85  C   UNL     1     141.234 171.551 191.924  0.00  0.00    -0.052 C 
ATOM     86  H   UNL     1     140.712 170.732 192.428  0.00  0.00    +0.024 HD
ATOM     87  H   UNL     1     141.991 171.936 192.613  0.00  0.00    +0.024 HD
ATOM     88  H   UNL     1     140.507 172.348 191.743  0.00  0.00    +0.024 HD
ENDBRANCH  83  85
BRANCH  83  89
ATOM     89  C   UNL     1     143.125 171.832 190.250  0.00  0.00    +0.118 C 
ATOM     90  H   UNL     1     143.833 171.064 189.906  0.00  0.00    +0.075 HD
BRANCH  89  91
ATOM     91  C   UNL     1     143.835 172.603 191.403  0.00  0.00    +0.014 C 
ATOM     92  H   UNL     1     143.571 172.076 192.332  0.00  0.00    +0.038 HD
BRANCH  91  93
ATOM     93  C   UNL     1     143.277 174.022 191.570  0.00  0.00    -0.056 C 
ATOM     94  H   UNL     1     142.239 174.025 191.918  0.00  0.00    +0.024 HD
ATOM     95  H   UNL     1     143.313 174.570 190.621  0.00  0.00    +0.024 HD
ATOM     96  H   UNL     1     143.874 174.587 192.294  0.00  0.00    +0.024 HD
ENDBRANCH  91  93
BRANCH  91  97
ATOM     97  C   UNL     1     145.350 172.508 191.355  0.00  0.00    -0.064 C 
ATOM     98  C   UNL     1     146.230 173.099 192.174  0.00  0.00    -0.010 C 
ATOM     99  H   UNL     1     145.733 171.858 190.571  0.00  0.00    +0.059 HD
ATOM    100  H   UNL     1     145.870 173.768 192.955  0.00  0.00    +0.078 HD
BRANCH  98 101
ATOM    101  N   UNL     1     147.613 173.007 192.165  0.00  0.00    -0.317 N 
BRANCH 101 102
ATOM    102  C   UNL     1     148.413 173.127 190.949  0.00  0.00    +0.002 C 
ATOM    103  H   UNL     1     148.694 172.137 190.574  0.00  0.00    +0.043 HD
ATOM    104  H   UNL     1     147.873 173.639 190.145  0.00  0.00    +0.043 HD
ATOM    105  H   UNL     1     149.325 173.703 191.149  0.00  0.00    +0.043 HD
ENDBRANCH 101 102
BRANCH 101 106
ATOM    106  C   UNL     1     148.363 172.761 193.384  0.00  0.00    +0.110 C 
ATOM    107  H   UNL     1     147.877 172.005 194.013  0.00  0.00    +0.077 HD
ATOM    108  H   UNL     1     148.487 173.664 193.992  0.00  0.00    +0.077 HD
BRANCH 106 109
ATOM    109  O   UNL     1     149.634 172.289 192.996  0.00  0.00    -0.377 OA
ATOM    110  H   UNL     1     150.213 172.719 193.650  0.00  0.00    +0.211 HD
ENDBRANCH 106 109
ENDBRANCH 101 106
ENDBRANCH  98 101
ENDBRANCH  91  97
ENDBRANCH  89  91
BRANCH  89 111
ATOM    111  O   UNL     1     142.858 172.721 189.140  0.00  0.00    -0.460 OA
BRANCH 111 112
ATOM    112  C   UNL     1     143.624 172.568 188.025  0.00  0.00    +0.304 C 
ATOM    113  O   UNL     1     144.776 172.956 187.890  0.00  0.00    -0.251 OA
BRANCH 112 114
ATOM    114  C   UNL     1     142.837 171.861 186.965  0.00  0.00    +0.033 C 
ATOM    115  H   UNL     1     142.917 170.781 187.104  0.00  0.00    +0.034 HD
ATOM    116  H   UNL     1     143.204 172.149 185.977  0.00  0.00    +0.034 HD
ATOM    117  H   UNL     1     141.784 172.147 187.041  0.00  0.00    +0.034 HD
ENDBRANCH 112 114
ENDBRANCH 111 112
ENDBRANCH  89 111
ENDBRANCH  83  89
ENDBRANCH  81  83
ENDBRANCH  78  81
ENDBRANCH  75  78
ENDBRANCH  69  75
ENDBRANCH  67  69
BRANCH  67 118
ATOM    118  O   UNL     1     145.438 165.500 192.126  0.00  0.00    -0.379 OA
BRANCH 118 119
ATOM    119  C   UNL     1     146.746 165.992 192.399  0.00  0.00    +0.037 C 
ATOM    120  H   UNL     1     147.167 166.372 191.463  0.00  0.00    +0.052 HD
ATOM    121  H   UNL     1     146.698 166.818 193.117  0.00  0.00    +0.052 HD
ATOM    122  H   UNL     1     147.400 165.201 192.775  0.00  0.00    +0.052 HD
ENDBRANCH 118 119
ENDBRANCH  67 118
ENDBRANCH  64  67
ENDBRANCH  13  64
BRANCH   8 123
ATOM    123  O   UNL     1     146.983 162.504 186.364  0.00  0.00    -0.391 OA
ATOM    124  H   UNL     1     146.381 161.961 185.822  0.00  0.00    +0.210 HD
ENDBRANCH   8 123
BRANCH  15 125
ATOM    125  O   UNL     1     145.752 169.719 187.630  0.00  0.00    -0.379 OA
BRANCH 125 126
ATOM    126  C   UNL     1     146.454 170.081 186.448  0.00  0.00    +0.037 C 
ATOM    127  H   UNL     1     147.163 170.892 186.645  0.00  0.00    +0.052 HD
ATOM    128  H   UNL     1     147.017 169.209 186.106  0.00  0.00    +0.052 HD
ATOM    129  H   UNL     1     145.763 170.367 185.651  0.00  0.00    +0.052 HD
ENDBRANCH 125 126
ENDBRANCH  15 125
TORSDOF 27
ENDMDL
MODEL 7
REMARK VINA RESULT:      -5.3      3.513      9.278
REMARK  Name = Ulapualide A_conf2
REMARK  27 active torsions:
REMARK  status: ('A' for Active; 'I' for Inactive)
REMARK    1  A    between atoms: C_1  and  C_2
REMARK    2  A    between atoms: C_9  and  O_63
REMARK    3  A    between atoms: C_14  and  C_38
REMARK    4  A    between atoms: C_15  and  C_37
REMARK    5  A    between atoms: C_16  and  O_35
REMARK    6  A    between atoms: O_35  and  C_36
REMARK    7  A    between atoms: C_38  and  C_39
REMARK    8  A    between atoms: C_39  and  C_40
REMARK    9  A    between atoms: C_39  and  O_61
REMARK   10  A    between atoms: C_40  and  C_41
REMARK   11  A    between atoms: C_40  and  C_42
REMARK   12  A    between atoms: C_42  and  C_43
REMARK   13  A    between atoms: C_43  and  C_44
REMARK   14  A    between atoms: C_44  and  C_46
REMARK   15  A    between atoms: C_46  and  C_47
REMARK   16  A    between atoms: C_46  and  C_48
REMARK   17  A    between atoms: C_48  and  C_49
REMARK   18  A    between atoms: C_48  and  O_57
REMARK   19  A    between atoms: C_49  and  C_50
REMARK   20  A    between atoms: C_49  and  C_51
REMARK   21  A    between atoms: C_52  and  N_53
REMARK   22  A    between atoms: N_53  and  C_54
REMARK   23  A    between atoms: N_53  and  C_55
REMARK   24  A    between atoms: C_55  and  O_56
REMARK   25  A    between atoms: O_57  and  C_58
REMARK   26  A    between atoms: C_58  and  C_60
REMARK   27  A    between atoms: O_61  and  C_62
REMARK                            x       y       z     vdW  Elec       q    Type
REMARK                         _______ _______ _______ _____ _____    ______ ____
ROOT
ATOM      1  C   UNL     1     154.228 165.381 190.692  0.00  0.00    +0.008 C 
ATOM      2  C   UNL     1     154.503 166.254 189.463  0.00  0.00    +0.014 C 
ATOM      3  C   UNL     1     153.316 166.558 188.564  0.00  0.00    +0.134 C 
ATOM      4  O   UNL     1     152.832 167.691 188.530  0.00  0.00    -0.297 OA
ATOM      5  C   UNL     1     152.803 165.433 187.682  0.00  0.00    +0.006 C 
ATOM      6  C   UNL     1     151.988 165.944 186.497  0.00  0.00    -0.044 C 
ATOM      7  C   UNL     1     151.759 164.908 185.388  0.00  0.00    -0.026 C 
ATOM      8  C   UNL     1     151.096 163.605 185.858  0.00  0.00    +0.065 C 
ATOM      9  C   UNL     1     150.567 162.804 184.669  0.00  0.00    +0.071 C 
ATOM     10  C   UNL     1     149.592 161.746 185.112  0.00  0.00    +0.310 C 
ATOM     11  O   UNL     1     149.782 160.543 184.985  0.00  0.00    -0.251 OA
ATOM     12  O   UNL     1     148.460 162.323 185.603  0.00  0.00    -0.461 OA
ATOM     13  C   UNL     1     147.389 161.429 185.991  0.00  0.00    +0.110 C 
ATOM     14  C   UNL     1     146.038 162.131 185.653  0.00  0.00    +0.020 C 
ATOM     15  C   UNL     1     145.974 163.662 185.980  0.00  0.00    +0.068 C 
ATOM     16  C   UNL     1     145.786 163.997 187.477  0.00  0.00    -0.008 C 
ATOM     17  C   UNL     1     144.424 163.630 188.028  0.00  0.00    -0.077 C 
ATOM     18  C   UNL     1     143.896 164.029 189.196  0.00  0.00    -0.003 C 
ATOM     19  C   UNL     1     144.598 164.797 190.167  0.00  0.00    +0.220 A 
ATOM     20  N   UNL     1     145.910 164.973 190.255  0.00  0.00    -0.205 NA
ATOM     21  C   UNL     1     146.104 165.716 191.390  0.00  0.00    +0.164 A 
ATOM     22  C   UNL     1     144.896 166.004 191.964  0.00  0.00    +0.125 A 
ATOM     23  O   UNL     1     143.926 165.422 191.209  0.00  0.00    -0.443 OA
ATOM     24  C   UNL     1     147.483 166.156 191.976  0.00  0.00    +0.250 A 
ATOM     25  N   UNL     1     148.656 165.835 191.451  0.00  0.00    -0.203 NA
ATOM     26  C   UNL     1     149.572 166.396 192.307  0.00  0.00    +0.164 A 
ATOM     27  C   UNL     1     148.921 167.051 193.322  0.00  0.00    +0.125 A 
ATOM     28  O   UNL     1     147.582 166.911 193.124  0.00  0.00    -0.442 OA
ATOM     29  C   UNL     1     151.129 166.327 192.194  0.00  0.00    +0.249 A 
ATOM     30  N   UNL     1     151.798 165.699 191.240  0.00  0.00    -0.212 NA
ATOM     31  C   UNL     1     153.124 165.915 191.542  0.00  0.00    +0.083 A 
ATOM     32  C   UNL     1     153.211 166.665 192.690  0.00  0.00    +0.116 A 
ATOM     33  O   UNL     1     151.951 166.938 193.117  0.00  0.00    -0.442 OA
ATOM     34  H   UNL     1     155.147 165.432 191.297  0.00  0.00    +0.037 HD
ATOM     35  H   UNL     1     155.300 165.824 188.848  0.00  0.00    +0.035 HD
ATOM     36  H   UNL     1     154.886 167.227 189.805  0.00  0.00    +0.035 HD
ATOM     37  H   UNL     1     153.672 164.876 187.316  0.00  0.00    +0.034 HD
ATOM     38  H   UNL     1     152.179 164.779 188.298  0.00  0.00    +0.034 HD
ATOM     39  H   UNL     1     151.017 166.309 186.859  0.00  0.00    +0.027 HD
ATOM     40  H   UNL     1     152.490 166.812 186.046  0.00  0.00    +0.027 HD
ATOM     41  H   UNL     1     151.133 165.385 184.623  0.00  0.00    +0.029 HD
ATOM     42  H   UNL     1     152.725 164.680 184.919  0.00  0.00    +0.029 HD
ATOM     43  H   UNL     1     150.288 163.836 186.562  0.00  0.00    +0.060 HD
ATOM     44  H   UNL     1     151.386 162.303 184.138  0.00  0.00    +0.040 HD
ATOM     45  H   UNL     1     150.045 163.439 183.944  0.00  0.00    +0.040 HD
ATOM     46  H   UNL     1     147.449 160.529 185.363  0.00  0.00    +0.074 HD
ATOM     47  H   UNL     1     145.217 161.609 186.159  0.00  0.00    +0.036 HD
ATOM     48  H   UNL     1     146.905 164.129 185.638  0.00  0.00    +0.060 HD
ATOM     49  H   UNL     1     145.915 165.080 187.599  0.00  0.00    +0.033 HD
ATOM     50  H   UNL     1     146.570 163.535 188.073  0.00  0.00    +0.033 HD
ATOM     51  H   UNL     1     143.796 163.016 187.383  0.00  0.00    +0.057 HD
ATOM     52  H   UNL     1     142.880 163.747 189.443  0.00  0.00    +0.067 HD
ATOM     53  H   UNL     1     144.570 166.546 192.840  0.00  0.00    +0.105 HD
ATOM     54  H   UNL     1     149.228 167.614 194.189  0.00  0.00    +0.105 HD
ATOM     55  H   UNL     1     154.016 167.075 193.277  0.00  0.00    +0.105 HD
ENDROOT
BRANCH   1  56
ATOM     56  C   UNL     1     154.051 163.898 190.365  0.00  0.00    -0.056 C 
ATOM     57  H   UNL     1     153.469 163.778 189.443  0.00  0.00    +0.024 HD
ATOM     58  H   UNL     1     154.999 163.380 190.203  0.00  0.00    +0.024 HD
ATOM     59  H   UNL     1     153.509 163.380 191.166  0.00  0.00    +0.024 HD
ENDBRANCH   1  56
BRANCH  14  60
ATOM     60  C   UNL     1     145.786 161.928 184.138  0.00  0.00    -0.057 C 
ATOM     61  H   UNL     1     146.034 162.828 183.566  0.00  0.00    +0.023 HD
ATOM     62  H   UNL     1     144.731 161.717 183.939  0.00  0.00    +0.023 HD
ATOM     63  H   UNL     1     146.381 161.095 183.745  0.00  0.00    +0.023 HD
ENDBRANCH  14  60
BRANCH  13  64
ATOM     64  C   UNL     1     147.633 160.968 187.445  0.00  0.00    +0.011 C 
ATOM     65  H   UNL     1     148.614 161.341 187.756  0.00  0.00    +0.033 HD
ATOM     66  H   UNL     1     146.916 161.425 188.123  0.00  0.00    +0.033 HD
BRANCH  64  67
ATOM     67  C   UNL     1     147.591 159.436 187.603  0.00  0.00    +0.064 C 
ATOM     68  H   UNL     1     146.924 159.192 188.440  0.00  0.00    +0.060 HD
BRANCH  67  69
ATOM     69  C   UNL     1     147.063 158.697 186.339  0.00  0.00    -0.017 C 
ATOM     70  H   UNL     1     146.918 159.442 185.548  0.00  0.00    +0.032 HD
BRANCH  69  71
ATOM     71  C   UNL     1     148.112 157.708 185.811  0.00  0.00    -0.060 C 
ATOM     72  H   UNL     1     148.461 158.005 184.816  0.00  0.00    +0.023 HD
ATOM     73  H   UNL     1     148.983 157.637 186.471  0.00  0.00    +0.023 HD
ATOM     74  H   UNL     1     147.684 156.703 185.721  0.00  0.00    +0.023 HD
ENDBRANCH  69  71
BRANCH  69  75
ATOM     75  C   UNL     1     145.712 157.963 186.508  0.00  0.00    -0.041 C 
ATOM     76  H   UNL     1     145.532 157.716 187.562  0.00  0.00    +0.027 HD
ATOM     77  H   UNL     1     145.784 156.998 185.988  0.00  0.00    +0.027 HD
BRANCH  75  78
ATOM     78  C   UNL     1     144.515 158.732 185.947  0.00  0.00    +0.007 C 
ATOM     79  H   UNL     1     144.428 159.702 186.444  0.00  0.00    +0.034 HD
ATOM     80  H   UNL     1     144.664 158.891 184.876  0.00  0.00    +0.034 HD
BRANCH  78  81
ATOM     81  C   UNL     1     143.197 157.990 186.146  0.00  0.00    +0.140 C 
ATOM     82  O   UNL     1     142.981 156.892 185.626  0.00  0.00    -0.297 OA
BRANCH  81  83
ATOM     83  C   UNL     1     142.133 158.611 187.050  0.00  0.00    +0.052 C 
ATOM     84  H   UNL     1     141.298 158.870 186.388  0.00  0.00    +0.041 HD
BRANCH  83  85
ATOM     85  C   UNL     1     141.582 157.566 188.023  0.00  0.00    -0.052 C 
ATOM     86  H   UNL     1     141.814 157.853 189.053  0.00  0.00    +0.024 HD
ATOM     87  H   UNL     1     140.497 157.454 187.946  0.00  0.00    +0.024 HD
ATOM     88  H   UNL     1     142.036 156.588 187.839  0.00  0.00    +0.024 HD
ENDBRANCH  83  85
BRANCH  83  89
ATOM     89  C   UNL     1     142.567 159.896 187.785  0.00  0.00    +0.118 C 
ATOM     90  H   UNL     1     143.510 160.195 187.303  0.00  0.00    +0.075 HD
BRANCH  89  91
ATOM     91  C   UNL     1     142.868 159.777 189.309  0.00  0.00    +0.014 C 
ATOM     92  H   UNL     1     142.296 158.907 189.667  0.00  0.00    +0.038 HD
BRANCH  91  93
ATOM     93  C   UNL     1     142.318 160.974 190.095  0.00  0.00    -0.056 C 
ATOM     94  H   UNL     1     141.537 161.511 189.548  0.00  0.00    +0.024 HD
ATOM     95  H   UNL     1     143.116 161.689 190.326  0.00  0.00    +0.024 HD
ATOM     96  H   UNL     1     141.891 160.645 191.049  0.00  0.00    +0.024 HD
ENDBRANCH  91  93
BRANCH  91  97
ATOM     97  C   UNL     1     144.309 159.410 189.618  0.00  0.00    -0.064 C 
ATOM     98  C   UNL     1     144.759 158.285 190.188  0.00  0.00    -0.010 C 
ATOM     99  H   UNL     1     145.037 160.157 189.307  0.00  0.00    +0.059 HD
ATOM    100  H   UNL     1     144.046 157.532 190.524  0.00  0.00    +0.078 HD
BRANCH  98 101
ATOM    101  N   UNL     1     146.068 157.918 190.457  0.00  0.00    -0.317 N 
BRANCH 101 102
ATOM    102  C   UNL     1     146.700 156.735 189.880  0.00  0.00    +0.002 C 
ATOM    103  H   UNL     1     147.650 156.521 190.382  0.00  0.00    +0.043 HD
ATOM    104  H   UNL     1     146.073 155.841 189.975  0.00  0.00    +0.043 HD
ATOM    105  H   UNL     1     146.890 156.888 188.810  0.00  0.00    +0.043 HD
ENDBRANCH 101 102
BRANCH 101 106
ATOM    106  C   UNL     1     146.900 158.692 191.362  0.00  0.00    +0.110 C 
ATOM    107  H   UNL     1     146.822 158.328 192.394  0.00  0.00    +0.077 HD
ATOM    108  H   UNL     1     146.640 159.756 191.368  0.00  0.00    +0.077 HD
BRANCH 106 109
ATOM    109  O   UNL     1     148.232 158.545 190.922  0.00  0.00    -0.377 OA
ATOM    110  H   UNL     1     148.504 159.473 190.802  0.00  0.00    +0.211 HD
ENDBRANCH 106 109
ENDBRANCH 101 106
ENDBRANCH  98 101
ENDBRANCH  91  97
ENDBRANCH  89  91
BRANCH  89 111
ATOM    111  O   UNL     1     141.593 160.938 187.543  0.00  0.00    -0.460 OA
BRANCH 111 112
ATOM    112  C   UNL     1     141.222 161.153 186.251  0.00  0.00    +0.304 C 
ATOM    113  O   UNL     1     140.147 160.847 185.755  0.00  0.00    -0.251 OA
BRANCH 112 114
ATOM    114  C   UNL     1     142.344 161.810 185.507  0.00  0.00    +0.033 C 
ATOM    115  H   UNL     1     141.941 162.430 184.704  0.00  0.00    +0.034 HD
ATOM    116  H   UNL     1     143.016 161.050 185.104  0.00  0.00    +0.034 HD
ATOM    117  H   UNL     1     142.910 162.448 186.192  0.00  0.00    +0.034 HD
ENDBRANCH 112 114
ENDBRANCH 111 112
ENDBRANCH  89 111
ENDBRANCH  83  89
ENDBRANCH  81  83
ENDBRANCH  78  81
ENDBRANCH  75  78
ENDBRANCH  69  75
ENDBRANCH  67  69
BRANCH  67 118
ATOM    118  O   UNL     1     148.918 158.997 187.922  0.00  0.00    -0.379 OA
BRANCH 118 119
ATOM    119  C   UNL     1     149.764 160.047 188.381  0.00  0.00    +0.037 C 
ATOM    120  H   UNL     1     150.574 159.599 188.964  0.00  0.00    +0.052 HD
ATOM    121  H   UNL     1     150.204 160.579 187.530  0.00  0.00    +0.052 HD
ATOM    122  H   UNL     1     149.221 160.744 189.024  0.00  0.00    +0.052 HD
ENDBRANCH 118 119
ENDBRANCH  67 118
ENDBRANCH  64  67
ENDBRANCH  13  64
BRANCH   8 123
ATOM    123  O   UNL     1     152.058 162.815 186.561  0.00  0.00    -0.391 OA
ATOM    124  H   UNL     1     152.865 163.347 186.686  0.00  0.00    +0.210 HD
ENDBRANCH   8 123
BRANCH  15 125
ATOM    125  O   UNL     1     144.895 164.254 185.218  0.00  0.00    -0.379 OA
BRANCH 125 126
ATOM    126  C   UNL     1     145.108 165.617 184.873  0.00  0.00    +0.037 C 
ATOM    127  H   UNL     1     144.370 165.955 184.139  0.00  0.00    +0.052 HD
ATOM    128  H   UNL     1     144.993 166.219 185.778  0.00  0.00    +0.052 HD
ATOM    129  H   UNL     1     146.121 165.774 184.493  0.00  0.00    +0.052 HD
ENDBRANCH 125 126
ENDBRANCH  15 125
TORSDOF 27
ENDMDL
MODEL 8
REMARK VINA RESULT:      -5.2      3.246      6.208
REMARK  Name = Ulapualide A_conf2
REMARK  27 active torsions:
REMARK  status: ('A' for Active; 'I' for Inactive)
REMARK    1  A    between atoms: C_1  and  C_2
REMARK    2  A    between atoms: C_9  and  O_63
REMARK    3  A    between atoms: C_14  and  C_38
REMARK    4  A    between atoms: C_15  and  C_37
REMARK    5  A    between atoms: C_16  and  O_35
REMARK    6  A    between atoms: O_35  and  C_36
REMARK    7  A    between atoms: C_38  and  C_39
REMARK    8  A    between atoms: C_39  and  C_40
REMARK    9  A    between atoms: C_39  and  O_61
REMARK   10  A    between atoms: C_40  and  C_41
REMARK   11  A    between atoms: C_40  and  C_42
REMARK   12  A    between atoms: C_42  and  C_43
REMARK   13  A    between atoms: C_43  and  C_44
REMARK   14  A    between atoms: C_44  and  C_46
REMARK   15  A    between atoms: C_46  and  C_47
REMARK   16  A    between atoms: C_46  and  C_48
REMARK   17  A    between atoms: C_48  and  C_49
REMARK   18  A    between atoms: C_48  and  O_57
REMARK   19  A    between atoms: C_49  and  C_50
REMARK   20  A    between atoms: C_49  and  C_51
REMARK   21  A    between atoms: C_52  and  N_53
REMARK   22  A    between atoms: N_53  and  C_54
REMARK   23  A    between atoms: N_53  and  C_55
REMARK   24  A    between atoms: C_55  and  O_56
REMARK   25  A    between atoms: O_57  and  C_58
REMARK   26  A    between atoms: C_58  and  C_60
REMARK   27  A    between atoms: O_61  and  C_62
REMARK                            x       y       z     vdW  Elec       q    Type
REMARK                         _______ _______ _______ _____ _____    ______ ____
ROOT
ATOM      1  C   UNL     1     142.538 158.793 189.771  0.00  0.00    +0.008 C 
ATOM      2  C   UNL     1     141.985 158.461 188.382  0.00  0.00    +0.014 C 
ATOM      3  C   UNL     1     142.797 158.946 187.192  0.00  0.00    +0.134 C 
ATOM      4  O   UNL     1     143.417 158.143 186.491  0.00  0.00    -0.297 OA
ATOM      5  C   UNL     1     142.760 160.432 186.880  0.00  0.00    +0.006 C 
ATOM      6  C   UNL     1     143.161 160.737 185.439  0.00  0.00    -0.044 C 
ATOM      7  C   UNL     1     142.795 162.150 184.963  0.00  0.00    -0.026 C 
ATOM      8  C   UNL     1     143.357 163.283 185.834  0.00  0.00    +0.065 C 
ATOM      9  C   UNL     1     143.276 164.623 185.102  0.00  0.00    +0.071 C 
ATOM     10  C   UNL     1     144.155 165.656 185.755  0.00  0.00    +0.310 C 
ATOM     11  O   UNL     1     143.734 166.678 186.284  0.00  0.00    -0.251 OA
ATOM     12  O   UNL     1     145.467 165.321 185.608  0.00  0.00    -0.461 OA
ATOM     13  C   UNL     1     146.440 166.268 186.110  0.00  0.00    +0.110 C 
ATOM     14  C   UNL     1     147.673 166.234 185.155  0.00  0.00    +0.020 C 
ATOM     15  C   UNL     1     148.105 164.811 184.663  0.00  0.00    +0.068 C 
ATOM     16  C   UNL     1     148.878 163.972 185.706  0.00  0.00    -0.008 C 
ATOM     17  C   UNL     1     150.265 164.493 186.016  0.00  0.00    -0.077 C 
ATOM     18  C   UNL     1     151.240 163.842 186.670  0.00  0.00    -0.003 C 
ATOM     19  C   UNL     1     151.078 162.564 187.278  0.00  0.00    +0.220 A 
ATOM     20  N   UNL     1     149.937 161.962 187.584  0.00  0.00    -0.205 NA
ATOM     21  C   UNL     1     150.295 160.801 188.217  0.00  0.00    +0.164 A 
ATOM     22  C   UNL     1     151.659 160.703 188.264  0.00  0.00    +0.125 A 
ATOM     23  O   UNL     1     152.176 161.818 187.680  0.00  0.00    -0.443 OA
ATOM     24  C   UNL     1     149.317 159.747 188.827  0.00  0.00    +0.250 A 
ATOM     25  N   UNL     1     147.998 159.864 188.830  0.00  0.00    -0.203 NA
ATOM     26  C   UNL     1     147.563 158.743 189.495  0.00  0.00    +0.164 A 
ATOM     27  C   UNL     1     148.637 157.975 189.865  0.00  0.00    +0.125 A 
ATOM     28  O   UNL     1     149.769 158.601 189.443  0.00  0.00    -0.442 OA
ATOM     29  C   UNL     1     146.083 158.354 189.812  0.00  0.00    +0.249 A 
ATOM     30  N   UNL     1     145.018 159.069 189.484  0.00  0.00    -0.212 NA
ATOM     31  C   UNL     1     143.948 158.340 189.953  0.00  0.00    +0.083 A 
ATOM     32  C   UNL     1     144.411 157.201 190.568  0.00  0.00    +0.116 A 
ATOM     33  O   UNL     1     145.766 157.193 190.485  0.00  0.00    -0.442 OA
ATOM     34  H   UNL     1     141.925 158.212 190.476  0.00  0.00    +0.037 HD
ATOM     35  H   UNL     1     140.959 158.828 188.271  0.00  0.00    +0.035 HD
ATOM     36  H   UNL     1     141.920 157.368 188.284  0.00  0.00    +0.035 HD
ATOM     37  H   UNL     1     141.737 160.783 187.058  0.00  0.00    +0.034 HD
ATOM     38  H   UNL     1     143.446 160.938 187.565  0.00  0.00    +0.034 HD
ATOM     39  H   UNL     1     144.243 160.586 185.327  0.00  0.00    +0.027 HD
ATOM     40  H   UNL     1     142.681 160.020 184.759  0.00  0.00    +0.027 HD
ATOM     41  H   UNL     1     143.170 162.253 183.937  0.00  0.00    +0.029 HD
ATOM     42  H   UNL     1     141.701 162.230 184.917  0.00  0.00    +0.029 HD
ATOM     43  H   UNL     1     144.392 163.054 186.113  0.00  0.00    +0.060 HD
ATOM     44  H   UNL     1     142.249 165.009 185.102  0.00  0.00    +0.040 HD
ATOM     45  H   UNL     1     143.597 164.541 184.057  0.00  0.00    +0.040 HD
ATOM     46  H   UNL     1     146.008 167.275 186.040  0.00  0.00    +0.074 HD
ATOM     47  H   UNL     1     148.522 166.734 185.634  0.00  0.00    +0.036 HD
ATOM     48  H   UNL     1     147.205 164.255 184.374  0.00  0.00    +0.060 HD
ATOM     49  H   UNL     1     148.984 162.954 185.309  0.00  0.00    +0.033 HD
ATOM     50  H   UNL     1     148.299 163.875 186.622  0.00  0.00    +0.033 HD
ATOM     51  H   UNL     1     150.504 165.482 185.625  0.00  0.00    +0.057 HD
ATOM     52  H   UNL     1     152.215 164.305 186.769  0.00  0.00    +0.067 HD
ATOM     53  H   UNL     1     152.366 159.985 188.652  0.00  0.00    +0.105 HD
ATOM     54  H   UNL     1     148.764 157.041 190.390  0.00  0.00    +0.105 HD
ATOM     55  H   UNL     1     143.955 156.355 191.054  0.00  0.00    +0.105 HD
ENDROOT
BRANCH   1  56
ATOM     56  C   UNL     1     142.336 160.253 190.181  0.00  0.00    -0.056 C 
ATOM     57  H   UNL     1     142.499 160.372 191.259  0.00  0.00    +0.024 HD
ATOM     58  H   UNL     1     143.029 160.936 189.685  0.00  0.00    +0.024 HD
ATOM     59  H   UNL     1     141.313 160.585 189.964  0.00  0.00    +0.024 HD
ENDBRANCH   1  56
BRANCH  14  60
ATOM     60  C   UNL     1     147.319 167.107 183.925  0.00  0.00    -0.057 C 
ATOM     61  H   UNL     1     146.907 166.503 183.109  0.00  0.00    +0.023 HD
ATOM     62  H   UNL     1     148.210 167.601 183.523  0.00  0.00    +0.023 HD
ATOM     63  H   UNL     1     146.587 167.880 184.185  0.00  0.00    +0.023 HD
ENDBRANCH  14  60
BRANCH  13  64
ATOM     64  C   UNL     1     146.669 165.990 187.612  0.00  0.00    +0.011 C 
ATOM     65  H   UNL     1     146.151 165.060 187.866  0.00  0.00    +0.033 HD
ATOM     66  H   UNL     1     147.721 165.807 187.819  0.00  0.00    +0.033 HD
BRANCH  64  67
ATOM     67  C   UNL     1     146.155 167.127 188.516  0.00  0.00    +0.064 C 
ATOM     68  H   UNL     1     145.511 167.784 187.916  0.00  0.00    +0.060 HD
BRANCH  67  69
ATOM     69  C   UNL     1     145.322 166.623 189.731  0.00  0.00    -0.017 C 
ATOM     70  H   UNL     1     144.397 167.210 189.773  0.00  0.00    +0.032 HD
BRANCH  69  71
ATOM     71  C   UNL     1     144.895 165.162 189.528  0.00  0.00    -0.060 C 
ATOM     72  H   UNL     1     143.897 164.986 189.944  0.00  0.00    +0.023 HD
ATOM     73  H   UNL     1     144.878 164.880 188.471  0.00  0.00    +0.023 HD
ATOM     74  H   UNL     1     145.587 164.483 190.040  0.00  0.00    +0.023 HD
ENDBRANCH  69  71
BRANCH  69  75
ATOM     75  C   UNL     1     146.000 166.767 191.114  0.00  0.00    -0.041 C 
ATOM     76  H   UNL     1     145.272 167.077 191.874  0.00  0.00    +0.027 HD
ATOM     77  H   UNL     1     146.728 167.586 191.051  0.00  0.00    +0.027 HD
BRANCH  75  78
ATOM     78  C   UNL     1     146.725 165.503 191.582  0.00  0.00    +0.007 C 
ATOM     79  H   UNL     1     146.045 164.648 191.549  0.00  0.00    +0.034 HD
ATOM     80  H   UNL     1     147.572 165.312 190.917  0.00  0.00    +0.034 HD
BRANCH  78  81
ATOM     81  C   UNL     1     147.249 165.623 193.009  0.00  0.00    +0.140 C 
ATOM     82  O   UNL     1     147.284 164.656 193.776  0.00  0.00    -0.297 OA
BRANCH  81  83
ATOM     83  C   UNL     1     147.784 166.973 193.485  0.00  0.00    +0.052 C 
ATOM     84  H   UNL     1     147.106 167.725 193.062  0.00  0.00    +0.041 HD
BRANCH  83  85
ATOM     85  C   UNL     1     147.645 167.098 195.004  0.00  0.00    -0.052 C 
ATOM     86  H   UNL     1     146.887 166.398 195.371  0.00  0.00    +0.024 HD
ATOM     87  H   UNL     1     148.579 166.879 195.528  0.00  0.00    +0.024 HD
ATOM     88  H   UNL     1     147.329 168.107 195.283  0.00  0.00    +0.024 HD
ENDBRANCH  83  85
BRANCH  83  89
ATOM     89  C   UNL     1     149.215 167.312 193.017  0.00  0.00    +0.118 C 
ATOM     90  H   UNL     1     149.657 167.882 193.848  0.00  0.00    +0.075 HD
BRANCH  89  91
ATOM     91  C   UNL     1     149.356 168.200 191.745  0.00  0.00    +0.014 C 
ATOM     92  H   UNL     1     148.385 168.154 191.230  0.00  0.00    +0.038 HD
BRANCH  91  93
ATOM     93  C   UNL     1     150.369 167.618 190.752  0.00  0.00    -0.056 C 
ATOM     94  H   UNL     1     150.080 166.625 190.392  0.00  0.00    +0.024 HD
ATOM     95  H   UNL     1     151.361 167.531 191.211  0.00  0.00    +0.024 HD
ATOM     96  H   UNL     1     150.472 168.272 189.880  0.00  0.00    +0.024 HD
ENDBRANCH  91  93
BRANCH  91  97
ATOM     97  C   UNL     1     149.529 169.677 192.051  0.00  0.00    -0.064 C 
ATOM     98  C   UNL     1     148.604 170.641 191.965  0.00  0.00    -0.010 C 
ATOM     99  H   UNL     1     150.523 169.948 192.402  0.00  0.00    +0.059 HD
ATOM    100  H   UNL     1     147.607 170.396 191.598  0.00  0.00    +0.078 HD
BRANCH  98 101
ATOM    101  N   UNL     1     148.731 171.989 192.261  0.00  0.00    -0.317 N 
BRANCH 101 102
ATOM    102  C   UNL     1     149.447 172.484 193.434  0.00  0.00    +0.002 C 
ATOM    103  H   UNL     1     150.243 173.177 193.137  0.00  0.00    +0.043 HD
ATOM    104  H   UNL     1     148.789 173.020 194.127  0.00  0.00    +0.043 HD
ATOM    105  H   UNL     1     149.894 171.648 193.987  0.00  0.00    +0.043 HD
ENDBRANCH 101 102
BRANCH 101 106
ATOM    106  C   UNL     1     148.131 173.010 191.419  0.00  0.00    +0.110 C 
ATOM    107  H   UNL     1     147.783 173.866 192.009  0.00  0.00    +0.077 HD
ATOM    108  H   UNL     1     147.276 172.635 190.847  0.00  0.00    +0.077 HD
BRANCH 106 109
ATOM    109  O   UNL     1     149.131 173.443 190.524  0.00  0.00    -0.377 OA
ATOM    110  H   UNL     1     148.607 173.661 189.732  0.00  0.00    +0.211 HD
ENDBRANCH 106 109
ENDBRANCH 101 106
ENDBRANCH  98 101
ENDBRANCH  91  97
ENDBRANCH  89  91
BRANCH  89 111
ATOM    111  O   UNL     1     149.971 166.088 192.864  0.00  0.00    -0.460 OA
BRANCH 111 112
ATOM    112  C   UNL     1     150.835 165.764 193.866  0.00  0.00    +0.304 C 
ATOM    113  O   UNL     1     150.537 165.214 194.917  0.00  0.00    -0.251 OA
BRANCH 112 114
ATOM    114  C   UNL     1     152.220 166.200 193.498  0.00  0.00    +0.033 C 
ATOM    115  H   UNL     1     152.716 165.411 192.928  0.00  0.00    +0.034 HD
ATOM    116  H   UNL     1     152.786 166.434 194.402  0.00  0.00    +0.034 HD
ATOM    117  H   UNL     1     152.166 167.099 192.879  0.00  0.00    +0.034 HD
ENDBRANCH 112 114
ENDBRANCH 111 112
ENDBRANCH  89 111
ENDBRANCH  83  89
ENDBRANCH  81  83
ENDBRANCH  78  81
ENDBRANCH  75  78
ENDBRANCH  69  75
ENDBRANCH  67  69
BRANCH  67 118
ATOM    118  O   UNL     1     147.293 167.875 188.963  0.00  0.00    -0.379 OA
BRANCH 118 119
ATOM    119  C   UNL     1     147.269 169.237 188.552  0.00  0.00    +0.037 C 
ATOM    120  H   UNL     1     146.264 169.463 188.183  0.00  0.00    +0.052 HD
ATOM    121  H   UNL     1     147.481 169.895 189.402  0.00  0.00    +0.052 HD
ATOM    122  H   UNL     1     147.982 169.422 187.744  0.00  0.00    +0.052 HD
ENDBRANCH 118 119
ENDBRANCH  67 118
ENDBRANCH  64  67
ENDBRANCH  13  64
BRANCH   8 123
ATOM    123  O   UNL     1     142.599 163.367 187.043  0.00  0.00    -0.391 OA
ATOM    124  H   UNL     1     143.213 163.324 187.798  0.00  0.00    +0.210 HD
ENDBRANCH   8 123
BRANCH  15 125
ATOM    125  O   UNL     1     148.916 164.957 183.473  0.00  0.00    -0.379 OA
BRANCH 125 126
ATOM    126  C   UNL     1     148.800 163.879 182.554  0.00  0.00    +0.037 C 
ATOM    127  H   UNL     1     149.227 162.961 182.971  0.00  0.00    +0.052 HD
ATOM    128  H   UNL     1     147.737 163.707 182.363  0.00  0.00    +0.052 HD
ATOM    129  H   UNL     1     149.276 164.120 181.600  0.00  0.00    +0.052 HD
ENDBRANCH 125 126
ENDBRANCH  15 125
TORSDOF 27
ENDMDL
MODEL 9
REMARK VINA RESULT:      -5.1      2.856      7.620
REMARK  Name = Ulapualide A_conf2
REMARK  27 active torsions:
REMARK  status: ('A' for Active; 'I' for Inactive)
REMARK    1  A    between atoms: C_1  and  C_2
REMARK    2  A    between atoms: C_9  and  O_63
REMARK    3  A    between atoms: C_14  and  C_38
REMARK    4  A    between atoms: C_15  and  C_37
REMARK    5  A    between atoms: C_16  and  O_35
REMARK    6  A    between atoms: O_35  and  C_36
REMARK    7  A    between atoms: C_38  and  C_39
REMARK    8  A    between atoms: C_39  and  C_40
REMARK    9  A    between atoms: C_39  and  O_61
REMARK   10  A    between atoms: C_40  and  C_41
REMARK   11  A    between atoms: C_40  and  C_42
REMARK   12  A    between atoms: C_42  and  C_43
REMARK   13  A    between atoms: C_43  and  C_44
REMARK   14  A    between atoms: C_44  and  C_46
REMARK   15  A    between atoms: C_46  and  C_47
REMARK   16  A    between atoms: C_46  and  C_48
REMARK   17  A    between atoms: C_48  and  C_49
REMARK   18  A    between atoms: C_48  and  O_57
REMARK   19  A    between atoms: C_49  and  C_50
REMARK   20  A    between atoms: C_49  and  C_51
REMARK   21  A    between atoms: C_52  and  N_53
REMARK   22  A    between atoms: N_53  and  C_54
REMARK   23  A    between atoms: N_53  and  C_55
REMARK   24  A    between atoms: C_55  and  O_56
REMARK   25  A    between atoms: O_57  and  C_58
REMARK   26  A    between atoms: C_58  and  C_60
REMARK   27  A    between atoms: O_61  and  C_62
REMARK                            x       y       z     vdW  Elec       q    Type
REMARK                         _______ _______ _______ _____ _____    ______ ____
ROOT
ATOM      1  C   UNL     1     149.545 158.068 189.071  0.00  0.00    +0.008 C 
ATOM      2  C   UNL     1     148.826 157.368 187.914  0.00  0.00    +0.014 C 
ATOM      3  C   UNL     1     148.005 158.250 186.988  0.00  0.00    +0.134 C 
ATOM      4  O   UNL     1     148.389 158.474 185.838  0.00  0.00    -0.297 OA
ATOM      5  C   UNL     1     146.687 158.785 187.519  0.00  0.00    +0.006 C 
ATOM      6  C   UNL     1     145.735 159.209 186.403  0.00  0.00    -0.044 C 
ATOM      7  C   UNL     1     144.280 159.406 186.849  0.00  0.00    -0.026 C 
ATOM      8  C   UNL     1     144.094 160.405 187.999  0.00  0.00    +0.065 C 
ATOM      9  C   UNL     1     142.629 160.823 188.125  0.00  0.00    +0.071 C 
ATOM     10  C   UNL     1     142.484 162.065 188.964  0.00  0.00    +0.310 C 
ATOM     11  O   UNL     1     141.894 162.102 190.036  0.00  0.00    -0.251 OA
ATOM     12  O   UNL     1     143.040 163.132 188.327  0.00  0.00    -0.461 OA
ATOM     13  C   UNL     1     142.902 164.420 188.973  0.00  0.00    +0.110 C 
ATOM     14  C   UNL     1     142.736 165.497 187.857  0.00  0.00    +0.020 C 
ATOM     15  C   UNL     1     143.656 165.314 186.602  0.00  0.00    +0.068 C 
ATOM     16  C   UNL     1     145.127 165.742 186.810  0.00  0.00    -0.008 C 
ATOM     17  C   UNL     1     145.322 167.235 186.970  0.00  0.00    -0.077 C 
ATOM     18  C   UNL     1     146.483 167.904 186.906  0.00  0.00    -0.003 C 
ATOM     19  C   UNL     1     147.757 167.282 186.776  0.00  0.00    +0.220 A 
ATOM     20  N   UNL     1     148.055 166.011 187.009  0.00  0.00    -0.205 NA
ATOM     21  C   UNL     1     149.409 165.913 186.825  0.00  0.00    +0.164 A 
ATOM     22  C   UNL     1     149.913 167.130 186.454  0.00  0.00    +0.125 A 
ATOM     23  O   UNL     1     148.881 168.016 186.426  0.00  0.00    -0.443 OA
ATOM     24  C   UNL     1     150.274 164.629 187.027  0.00  0.00    +0.250 A 
ATOM     25  N   UNL     1     149.798 163.462 187.435  0.00  0.00    -0.203 NA
ATOM     26  C   UNL     1     150.905 162.653 187.504  0.00  0.00    +0.164 A 
ATOM     27  C   UNL     1     152.020 163.355 187.123  0.00  0.00    +0.125 A 
ATOM     28  O   UNL     1     151.634 164.622 186.810  0.00  0.00    -0.442 OA
ATOM     29  C   UNL     1     150.948 161.155 187.947  0.00  0.00    +0.249 A 
ATOM     30  N   UNL     1     149.901 160.441 188.332  0.00  0.00    -0.212 NA
ATOM     31  C   UNL     1     150.410 159.194 188.613  0.00  0.00    +0.083 A 
ATOM     32  C   UNL     1     151.768 159.199 188.397  0.00  0.00    +0.116 A 
ATOM     33  O   UNL     1     152.126 160.438 187.970  0.00  0.00    -0.442 OA
ATOM     34  H   UNL     1     150.215 157.308 189.500  0.00  0.00    +0.037 HD
ATOM     35  H   UNL     1     148.180 156.564 188.284  0.00  0.00    +0.035 HD
ATOM     36  H   UNL     1     149.578 156.874 187.282  0.00  0.00    +0.035 HD
ATOM     37  H   UNL     1     146.222 157.990 188.114  0.00  0.00    +0.034 HD
ATOM     38  H   UNL     1     146.904 159.644 188.159  0.00  0.00    +0.034 HD
ATOM     39  H   UNL     1     146.104 160.139 185.950  0.00  0.00    +0.027 HD
ATOM     40  H   UNL     1     145.742 158.456 185.602  0.00  0.00    +0.027 HD
ATOM     41  H   UNL     1     143.715 159.745 185.971  0.00  0.00    +0.029 HD
ATOM     42  H   UNL     1     143.869 158.429 187.139  0.00  0.00    +0.029 HD
ATOM     43  H   UNL     1     144.735 161.278 187.836  0.00  0.00    +0.060 HD
ATOM     44  H   UNL     1     142.033 160.030 188.595  0.00  0.00    +0.040 HD
ATOM     45  H   UNL     1     142.177 161.039 187.150  0.00  0.00    +0.040 HD
ATOM     46  H   UNL     1     141.970 164.414 189.555  0.00  0.00    +0.074 HD
ATOM     47  H   UNL     1     142.886 166.495 188.285  0.00  0.00    +0.036 HD
ATOM     48  H   UNL     1     143.643 164.257 186.313  0.00  0.00    +0.060 HD
ATOM     49  H   UNL     1     145.698 165.423 185.929  0.00  0.00    +0.033 HD
ATOM     50  H   UNL     1     145.562 165.213 187.654  0.00  0.00    +0.033 HD
ATOM     51  H   UNL     1     144.415 167.825 187.105  0.00  0.00    +0.057 HD
ATOM     52  H   UNL     1     146.477 168.986 186.973  0.00  0.00    +0.067 HD
ATOM     53  H   UNL     1     150.892 167.515 186.210  0.00  0.00    +0.105 HD
ATOM     54  H   UNL     1     153.071 163.129 187.030  0.00  0.00    +0.105 HD
ATOM     55  H   UNL     1     152.558 158.470 188.470  0.00  0.00    +0.105 HD
ENDROOT
BRANCH   1  56
ATOM     56  C   UNL     1     148.618 158.472 190.218  0.00  0.00    -0.056 C 
ATOM     57  H   UNL     1     149.198 158.903 191.042  0.00  0.00    +0.024 HD
ATOM     58  H   UNL     1     147.883 159.227 189.927  0.00  0.00    +0.024 HD
ATOM     59  H   UNL     1     148.078 157.602 190.613  0.00  0.00    +0.024 HD
ENDBRANCH   1  56
BRANCH  14  60
ATOM     60  C   UNL     1     141.254 165.460 187.406  0.00  0.00    -0.057 C 
ATOM     61  H   UNL     1     140.667 166.247 187.890  0.00  0.00    +0.023 HD
ATOM     62  H   UNL     1     140.783 164.510 187.680  0.00  0.00    +0.023 HD
ATOM     63  H   UNL     1     141.168 165.583 186.320  0.00  0.00    +0.023 HD
ENDBRANCH  14  60
BRANCH  13  64
ATOM     64  C   UNL     1     144.054 164.589 189.989  0.00  0.00    +0.011 C 
ATOM     65  H   UNL     1     144.108 163.676 190.590  0.00  0.00    +0.033 HD
ATOM     66  H   UNL     1     145.013 164.664 189.481  0.00  0.00    +0.033 HD
BRANCH  64  67
ATOM     67  C   UNL     1     143.862 165.804 190.915  0.00  0.00    +0.064 C 
ATOM     68  H   UNL     1     144.411 165.618 191.849  0.00  0.00    +0.060 HD
BRANCH  67  69
ATOM     69  C   UNL     1     144.390 167.136 190.308  0.00  0.00    -0.017 C 
ATOM     70  H   UNL     1     144.550 166.978 189.235  0.00  0.00    +0.032 HD
BRANCH  69  71
ATOM     71  C   UNL     1     143.330 168.243 190.425  0.00  0.00    -0.060 C 
ATOM     72  H   UNL     1     143.165 168.728 189.457  0.00  0.00    +0.023 HD
ATOM     73  H   UNL     1     142.370 167.859 190.784  0.00  0.00    +0.023 HD
ATOM     74  H   UNL     1     143.659 169.018 191.127  0.00  0.00    +0.023 HD
ENDBRANCH  69  71
BRANCH  69  75
ATOM     75  C   UNL     1     145.729 167.652 190.884  0.00  0.00    -0.041 C 
ATOM     76  H   UNL     1     145.692 167.691 191.980  0.00  0.00    +0.027 HD
ATOM     77  H   UNL     1     145.860 168.692 190.557  0.00  0.00    +0.027 HD
BRANCH  75  78
ATOM     78  C   UNL     1     146.947 166.842 190.438  0.00  0.00    +0.007 C 
ATOM     79  H   UNL     1     146.648 166.090 189.703  0.00  0.00    +0.034 HD
ATOM     80  H   UNL     1     147.677 167.517 189.982  0.00  0.00    +0.034 HD
BRANCH  78  81
ATOM     81  C   UNL     1     147.622 166.114 191.596  0.00  0.00    +0.140 C 
ATOM     82  O   UNL     1     146.987 165.394 192.373  0.00  0.00    -0.297 OA
BRANCH  81  83
ATOM     83  C   UNL     1     149.133 166.250 191.770  0.00  0.00    +0.052 C 
ATOM     84  H   UNL     1     149.461 165.316 192.243  0.00  0.00    +0.041 HD
BRANCH  83  85
ATOM     85  C   UNL     1     149.828 166.289 190.407  0.00  0.00    -0.052 C 
ATOM     86  H   UNL     1     150.886 166.541 190.531  0.00  0.00    +0.024 HD
ATOM     87  H   UNL     1     149.775 165.331 189.883  0.00  0.00    +0.024 HD
ATOM     88  H   UNL     1     149.378 167.051 189.764  0.00  0.00    +0.024 HD
ENDBRANCH  83  85
BRANCH  83  89
ATOM     89  C   UNL     1     149.586 167.419 192.670  0.00  0.00    +0.118 C 
ATOM     90  H   UNL     1     148.696 167.685 193.259  0.00  0.00    +0.075 HD
BRANCH  89  91
ATOM     91  C   UNL     1     150.056 168.724 191.960  0.00  0.00    +0.014 C 
ATOM     92  H   UNL     1     150.164 168.470 190.894  0.00  0.00    +0.038 HD
BRANCH  91  93
ATOM     93  C   UNL     1     151.455 169.152 192.419  0.00  0.00    -0.056 C 
ATOM     94  H   UNL     1     152.245 168.518 192.003  0.00  0.00    +0.024 HD
ATOM     95  H   UNL     1     151.536 169.113 193.511  0.00  0.00    +0.024 HD
ATOM     96  H   UNL     1     151.660 170.184 192.115  0.00  0.00    +0.024 HD
ENDBRANCH  91  93
BRANCH  91  97
ATOM     97  C   UNL     1     149.011 169.826 191.961  0.00  0.00    -0.064 C 
ATOM     98  C   UNL     1     149.221 171.148 191.930  0.00  0.00    -0.010 C 
ATOM     99  H   UNL     1     147.983 169.467 191.963  0.00  0.00    +0.059 HD
ATOM    100  H   UNL     1     150.242 171.529 191.947  0.00  0.00    +0.078 HD
BRANCH  98 101
ATOM    101  N   UNL     1     148.285 172.170 191.906  0.00  0.00    -0.317 N 
BRANCH 101 102
ATOM    102  C   UNL     1     147.590 172.587 190.691  0.00  0.00    +0.002 C 
ATOM    103  H   UNL     1     147.629 171.796 189.934  0.00  0.00    +0.043 HD
ATOM    104  H   UNL     1     146.533 172.812 190.874  0.00  0.00    +0.043 HD
ATOM    105  H   UNL     1     148.051 173.494 190.282  0.00  0.00    +0.043 HD
ENDBRANCH 101 102
BRANCH 101 106
ATOM    106  C   UNL     1     147.948 172.917 193.106  0.00  0.00    +0.110 C 
ATOM    107  H   UNL     1     148.846 173.279 193.622  0.00  0.00    +0.077 HD
ATOM    108  H   UNL     1     147.373 172.322 193.825  0.00  0.00    +0.077 HD
BRANCH 106 109
ATOM    109  O   UNL     1     147.174 174.022 192.697  0.00  0.00    -0.377 OA
ATOM    110  H   UNL     1     146.820 173.711 191.845  0.00  0.00    +0.211 HD
ENDBRANCH 106 109
ENDBRANCH 101 106
ENDBRANCH  98 101
ENDBRANCH  91  97
ENDBRANCH  89  91
BRANCH  89 111
ATOM    111  O   UNL     1     150.603 166.950 193.587  0.00  0.00    -0.460 OA
BRANCH 111 112
ATOM    112  C   UNL     1     150.254 165.948 194.440  0.00  0.00    +0.304 C 
ATOM    113  O   UNL     1     150.867 164.902 194.603  0.00  0.00    -0.251 OA
BRANCH 112 114
ATOM    114  C   UNL     1     148.984 166.306 195.147  0.00  0.00    +0.033 C 
ATOM    115  H   UNL     1     149.215 166.795 196.097  0.00  0.00    +0.034 HD
ATOM    116  H   UNL     1     148.387 165.407 195.314  0.00  0.00    +0.034 HD
ATOM    117  H   UNL     1     148.406 166.998 194.529  0.00  0.00    +0.034 HD
ENDBRANCH 112 114
ENDBRANCH 111 112
ENDBRANCH  89 111
ENDBRANCH  83  89
ENDBRANCH  81  83
ENDBRANCH  78  81
ENDBRANCH  75  78
ENDBRANCH  69  75
ENDBRANCH  67  69
BRANCH  67 118
ATOM    118  O   UNL     1     142.463 165.907 191.212  0.00  0.00    -0.379 OA
BRANCH 118 119
ATOM    119  C   UNL     1     142.158 165.664 192.581  0.00  0.00    +0.037 C 
ATOM    120  H   UNL     1     142.040 164.584 192.716  0.00  0.00    +0.052 HD
ATOM    121  H   UNL     1     142.980 166.003 193.220  0.00  0.00    +0.052 HD
ATOM    122  H   UNL     1     141.224 166.152 192.874  0.00  0.00    +0.052 HD
ENDBRANCH 118 119
ENDBRANCH  67 118
ENDBRANCH  64  67
ENDBRANCH  13  64
BRANCH   8 123
ATOM    123  O   UNL     1     144.510 159.795 189.223  0.00  0.00    -0.391 OA
ATOM    124  H   UNL     1     144.416 158.829 189.136  0.00  0.00    +0.210 HD
ENDBRANCH   8 123
BRANCH  15 125
ATOM    125  O   UNL     1     143.092 166.064 185.500  0.00  0.00    -0.379 OA
BRANCH 125 126
ATOM    126  C   UNL     1     143.210 165.420 184.238  0.00  0.00    +0.037 C 
ATOM    127  H   UNL     1     143.502 166.132 183.460  0.00  0.00    +0.052 HD
ATOM    128  H   UNL     1     143.990 164.658 184.317  0.00  0.00    +0.052 HD
ATOM    129  H   UNL     1     142.279 164.917 183.963  0.00  0.00    +0.052 HD
ENDBRANCH 125 126
ENDBRANCH  15 125
TORSDOF 27
ENDMDL
MODEL 10
REMARK VINA RESULT:      -5.1      3.437      7.727
REMARK  Name = Ulapualide A_conf2
REMARK  27 active torsions:
REMARK  status: ('A' for Active; 'I' for Inactive)
REMARK    1  A    between atoms: C_1  and  C_2
REMARK    2  A    between atoms: C_9  and  O_63
REMARK    3  A    between atoms: C_14  and  C_38
REMARK    4  A    between atoms: C_15  and  C_37
REMARK    5  A    between atoms: C_16  and  O_35
REMARK    6  A    between atoms: O_35  and  C_36
REMARK    7  A    between atoms: C_38  and  C_39
REMARK    8  A    between atoms: C_39  and  C_40
REMARK    9  A    between atoms: C_39  and  O_61
REMARK   10  A    between atoms: C_40  and  C_41
REMARK   11  A    between atoms: C_40  and  C_42
REMARK   12  A    between atoms: C_42  and  C_43
REMARK   13  A    between atoms: C_43  and  C_44
REMARK   14  A    between atoms: C_44  and  C_46
REMARK   15  A    between atoms: C_46  and  C_47
REMARK   16  A    between atoms: C_46  and  C_48
REMARK   17  A    between atoms: C_48  and  C_49
REMARK   18  A    between atoms: C_48  and  O_57
REMARK   19  A    between atoms: C_49  and  C_50
REMARK   20  A    between atoms: C_49  and  C_51
REMARK   21  A    between atoms: C_52  and  N_53
REMARK   22  A    between atoms: N_53  and  C_54
REMARK   23  A    between atoms: N_53  and  C_55
REMARK   24  A    between atoms: C_55  and  O_56
REMARK   25  A    between atoms: O_57  and  C_58
REMARK   26  A    between atoms: C_58  and  C_60
REMARK   27  A    between atoms: O_61  and  C_62
REMARK                            x       y       z     vdW  Elec       q    Type
REMARK                         _______ _______ _______ _____ _____    ______ ____
ROOT
ATOM      1  C   UNL     1     143.445 157.361 189.062  0.00  0.00    +0.008 C 
ATOM      2  C   UNL     1     142.496 157.550 187.874  0.00  0.00    +0.014 C 
ATOM      3  C   UNL     1     142.728 158.775 187.005  0.00  0.00    +0.134 C 
ATOM      4  O   UNL     1     143.184 158.655 185.866  0.00  0.00    -0.297 OA
ATOM      5  C   UNL     1     142.324 160.123 187.576  0.00  0.00    +0.006 C 
ATOM      6  C   UNL     1     142.121 161.180 186.494  0.00  0.00    -0.044 C 
ATOM      7  C   UNL     1     141.370 162.434 186.962  0.00  0.00    -0.026 C 
ATOM      8  C   UNL     1     142.001 163.144 188.168  0.00  0.00    +0.065 C 
ATOM      9  C   UNL     1     141.431 164.553 188.329  0.00  0.00    +0.071 C 
ATOM     10  C   UNL     1     142.292 165.391 189.236  0.00  0.00    +0.310 C 
ATOM     11  O   UNL     1     141.919 165.837 190.314  0.00  0.00    -0.251 OA
ATOM     12  O   UNL     1     143.500 165.628 188.655  0.00  0.00    -0.461 OA
ATOM     13  C   UNL     1     144.409 166.497 189.373  0.00  0.00    +0.110 C 
ATOM     14  C   UNL     1     145.201 167.330 188.320  0.00  0.00    +0.020 C 
ATOM     15  C   UNL     1     145.668 166.542 187.049  0.00  0.00    +0.068 C 
ATOM     16  C   UNL     1     146.898 165.630 187.267  0.00  0.00    -0.008 C 
ATOM     17  C   UNL     1     148.190 166.380 187.508  0.00  0.00    -0.077 C 
ATOM     18  C   UNL     1     149.432 165.872 187.471  0.00  0.00    -0.003 C 
ATOM     19  C   UNL     1     149.723 164.490 187.296  0.00  0.00    +0.220 A 
ATOM     20  N   UNL     1     148.892 163.469 187.456  0.00  0.00    -0.205 NA
ATOM     21  C   UNL     1     149.649 162.346 187.255  0.00  0.00    +0.164 A 
ATOM     22  C   UNL     1     150.934 162.704 186.948  0.00  0.00    +0.125 A 
ATOM     23  O   UNL     1     151.005 164.062 186.978  0.00  0.00    -0.443 OA
ATOM     24  C   UNL     1     149.156 160.869 187.378  0.00  0.00    +0.250 A 
ATOM     25  N   UNL     1     147.926 160.518 187.725  0.00  0.00    -0.203 NA
ATOM     26  C   UNL     1     147.961 159.145 187.740  0.00  0.00    +0.164 A 
ATOM     27  C   UNL     1     149.212 158.707 187.389  0.00  0.00    +0.125 A 
ATOM     28  O   UNL     1     149.990 159.797 187.150  0.00  0.00    -0.442 OA
ATOM     29  C   UNL     1     146.786 158.179 188.098  0.00  0.00    +0.249 A 
ATOM     30  N   UNL     1     145.568 158.557 188.452  0.00  0.00    -0.212 NA
ATOM     31  C   UNL     1     144.882 157.381 188.659  0.00  0.00    +0.083 A 
ATOM     32  C   UNL     1     145.724 156.319 188.433  0.00  0.00    +0.116 A 
ATOM     33  O   UNL     1     146.939 156.809 188.072  0.00  0.00    -0.442 OA
ATOM     34  H   UNL     1     143.237 156.349 189.443  0.00  0.00    +0.037 HD
ATOM     35  H   UNL     1     141.452 157.555 188.204  0.00  0.00    +0.035 HD
ATOM     36  H   UNL     1     142.591 156.679 187.209  0.00  0.00    +0.035 HD
ATOM     37  H   UNL     1     141.389 159.982 188.130  0.00  0.00    +0.034 HD
ATOM     38  H   UNL     1     143.112 160.449 188.261  0.00  0.00    +0.034 HD
ATOM     39  H   UNL     1     143.099 161.474 186.089  0.00  0.00    +0.027 HD
ATOM     40  H   UNL     1     141.561 160.748 185.652  0.00  0.00    +0.027 HD
ATOM     41  H   UNL     1     141.327 163.123 186.109  0.00  0.00    +0.029 HD
ATOM     42  H   UNL     1     140.335 162.152 187.201  0.00  0.00    +0.029 HD
ATOM     43  H   UNL     1     143.090 163.176 188.047  0.00  0.00    +0.060 HD
ATOM     44  H   UNL     1     140.422 164.522 188.759  0.00  0.00    +0.040 HD
ATOM     45  H   UNL     1     141.363 165.082 187.371  0.00  0.00    +0.040 HD
ATOM     46  H   UNL     1     143.812 167.207 189.961  0.00  0.00    +0.074 HD
ATOM     47  H   UNL     1     146.066 167.803 188.800  0.00  0.00    +0.036 HD
ATOM     48  H   UNL     1     144.835 165.919 186.701  0.00  0.00    +0.060 HD
ATOM     49  H   UNL     1     147.029 165.019 186.365  0.00  0.00    +0.033 HD
ATOM     50  H   UNL     1     146.713 164.929 188.077  0.00  0.00    +0.033 HD
ATOM     51  H   UNL     1     148.097 167.452 187.683  0.00  0.00    +0.057 HD
ATOM     52  H   UNL     1     150.281 166.534 187.598  0.00  0.00    +0.067 HD
ATOM     53  H   UNL     1     151.846 162.175 186.717  0.00  0.00    +0.105 HD
ATOM     54  H   UNL     1     149.680 157.741 187.274  0.00  0.00    +0.105 HD
ATOM     55  H   UNL     1     145.628 155.246 188.459  0.00  0.00    +0.105 HD
ENDROOT
BRANCH   1  56
ATOM     56  C   UNL     1     143.153 158.294 190.237  0.00  0.00    -0.056 C 
ATOM     57  H   UNL     1     142.778 157.723 191.094  0.00  0.00    +0.024 HD
ATOM     58  H   UNL     1     144.039 158.831 190.586  0.00  0.00    +0.024 HD
ATOM     59  H   UNL     1     142.387 159.033 189.972  0.00  0.00    +0.024 HD
ENDBRANCH   1  56
BRANCH  14  60
ATOM     60  C   UNL     1     144.283 168.498 187.879  0.00  0.00    -0.057 C 
ATOM     61  H   UNL     1     143.936 169.082 188.738  0.00  0.00    +0.023 HD
ATOM     62  H   UNL     1     143.386 168.126 187.375  0.00  0.00    +0.023 HD
ATOM     63  H   UNL     1     144.805 169.175 187.192  0.00  0.00    +0.023 HD
ENDBRANCH  14  60
BRANCH  13  64
ATOM     64  C   UNL     1     145.207 165.647 190.386  0.00  0.00    +0.011 C 
ATOM     65  H   UNL     1     144.761 164.648 190.412  0.00  0.00    +0.033 HD
ATOM     66  H   UNL     1     146.232 165.503 190.052  0.00  0.00    +0.033 HD
BRANCH  64  67
ATOM     67  C   UNL     1     145.205 166.248 191.804  0.00  0.00    +0.064 C 
ATOM     68  H   UNL     1     144.842 165.484 192.504  0.00  0.00    +0.060 HD
BRANCH  67  69
ATOM     69  C   UNL     1     146.613 166.706 192.285  0.00  0.00    -0.017 C 
ATOM     70  H   UNL     1     146.521 167.727 192.675  0.00  0.00    +0.032 HD
BRANCH  69  71
ATOM     71  C   UNL     1     147.094 165.840 193.459  0.00  0.00    -0.060 C 
ATOM     72  H   UNL     1     146.404 165.008 193.638  0.00  0.00    +0.023 HD
ATOM     73  H   UNL     1     148.091 165.425 193.285  0.00  0.00    +0.023 HD
ATOM     74  H   UNL     1     147.139 166.432 194.381  0.00  0.00    +0.023 HD
ENDBRANCH  69  71
BRANCH  69  75
ATOM     75  C   UNL     1     147.713 166.745 191.199  0.00  0.00    -0.041 C 
ATOM     76  H   UNL     1     147.425 166.138 190.331  0.00  0.00    +0.027 HD
ATOM     77  H   UNL     1     148.611 166.265 191.609  0.00  0.00    +0.027 HD
BRANCH  75  78
ATOM     78  C   UNL     1     148.080 168.158 190.740  0.00  0.00    +0.007 C 
ATOM     79  H   UNL     1     148.667 168.110 189.819  0.00  0.00    +0.034 HD
ATOM     80  H   UNL     1     147.162 168.721 190.550  0.00  0.00    +0.034 HD
BRANCH  78  81
ATOM     81  C   UNL     1     148.904 168.914 191.776  0.00  0.00    +0.140 C 
ATOM     82  O   UNL     1     148.405 169.347 192.819  0.00  0.00    -0.297 OA
BRANCH  81  83
ATOM     83  C   UNL     1     150.400 169.104 191.530  0.00  0.00    +0.052 C 
ATOM     84  H   UNL     1     150.488 169.442 190.490  0.00  0.00    +0.041 HD
BRANCH  83  85
ATOM     85  C   UNL     1     150.942 170.250 192.386  0.00  0.00    -0.052 C 
ATOM     86  H   UNL     1     150.491 170.221 193.383  0.00  0.00    +0.024 HD
ATOM     87  H   UNL     1     152.028 170.202 192.511  0.00  0.00    +0.024 HD
ATOM     88  H   UNL     1     150.697 171.218 191.939  0.00  0.00    +0.024 HD
ENDBRANCH  83  85
BRANCH  83  89
ATOM     89  C   UNL     1     151.255 167.828 191.684  0.00  0.00    +0.118 C 
ATOM     90  H   UNL     1     152.266 168.191 191.925  0.00  0.00    +0.075 HD
BRANCH  89  91
ATOM     91  C   UNL     1     151.399 166.912 190.433  0.00  0.00    +0.014 C 
ATOM     92  H   UNL     1     150.718 167.322 189.673  0.00  0.00    +0.038 HD
BRANCH  91  93
ATOM     93  C   UNL     1     150.893 165.490 190.705  0.00  0.00    -0.056 C 
ATOM     94  H   UNL     1     151.444 164.733 190.138  0.00  0.00    +0.024 HD
ATOM     95  H   UNL     1     149.833 165.397 190.443  0.00  0.00    +0.024 HD
ATOM     96  H   UNL     1     150.987 165.245 191.768  0.00  0.00    +0.024 HD
ENDBRANCH  91  93
BRANCH  91  97
ATOM     97  C   UNL     1     152.764 166.995 189.772  0.00  0.00    -0.064 C 
ATOM     98  C   UNL     1     153.162 166.392 188.645  0.00  0.00    -0.010 C 
ATOM     99  H   UNL     1     153.470 167.646 190.284  0.00  0.00    +0.059 HD
ATOM    100  H   UNL     1     152.478 165.721 188.126  0.00  0.00    +0.078 HD
BRANCH  98 101
ATOM    101  N   UNL     1     154.392 166.472 188.011  0.00  0.00    -0.317 N 
BRANCH 101 102
ATOM    102  C   UNL     1     154.603 167.210 186.768  0.00  0.00    +0.002 C 
ATOM    103  H   UNL     1     153.645 167.533 186.345  0.00  0.00    +0.043 HD
ATOM    104  H   UNL     1     155.215 168.107 186.916  0.00  0.00    +0.043 HD
ATOM    105  H   UNL     1     155.120 166.579 186.035  0.00  0.00    +0.043 HD
ENDBRANCH 101 102
BRANCH 101 106
ATOM    106  C   UNL     1     155.563 165.797 188.543  0.00  0.00    +0.110 C 
ATOM    107  H   UNL     1     156.278 165.543 187.750  0.00  0.00    +0.077 HD
ATOM    108  H   UNL     1     155.312 164.869 189.068  0.00  0.00    +0.077 HD
BRANCH 106 109
ATOM    109  O   UNL     1     156.175 166.688 189.448  0.00  0.00    -0.377 OA
ATOM    110  H   UNL     1     155.904 166.315 190.306  0.00  0.00    +0.211 HD
ENDBRANCH 106 109
ENDBRANCH 101 106
ENDBRANCH  98 101
ENDBRANCH  91  97
ENDBRANCH  89  91
BRANCH  89 111
ATOM    111  O   UNL     1     150.776 167.064 192.816  0.00  0.00    -0.460 OA
BRANCH 111 112
ATOM    112  C   UNL     1     151.714 166.479 193.611  0.00  0.00    +0.304 C 
ATOM    113  O   UNL     1     152.923 166.648 193.534  0.00  0.00    -0.251 OA
BRANCH 112 114
ATOM    114  C   UNL     1     151.044 165.571 194.596  0.00  0.00    +0.033 C 
ATOM    115  H   UNL     1     151.501 165.694 195.581  0.00  0.00    +0.034 HD
ATOM    116  H   UNL     1     151.128 164.535 194.261  0.00  0.00    +0.034 HD
ATOM    117  H   UNL     1     149.984 165.830 194.667  0.00  0.00    +0.034 HD
ENDBRANCH 112 114
ENDBRANCH 111 112
ENDBRANCH  89 111
ENDBRANCH  83  89
ENDBRANCH  81  83
ENDBRANCH  78  81
ENDBRANCH  75  78
ENDBRANCH  69  75
ENDBRANCH  67  69
BRANCH  67 118
ATOM    118  O   UNL     1     144.290 167.352 191.807  0.00  0.00    -0.379 OA
BRANCH 118 119
ATOM    119  C   UNL     1     143.410 167.351 192.925  0.00  0.00    +0.037 C 
ATOM    120  H   UNL     1     142.474 167.830 192.621  0.00  0.00    +0.052 HD
ATOM    121  H   UNL     1     143.188 166.324 193.234  0.00  0.00    +0.052 HD
ATOM    122  H   UNL     1     143.829 167.916 193.763  0.00  0.00    +0.052 HD
ENDBRANCH 118 119
ENDBRANCH  67 118
ENDBRANCH  64  67
ENDBRANCH  13  64
BRANCH   8 123
ATOM    123  O   UNL     1     141.726 162.393 189.352  0.00  0.00    -0.391 OA
ATOM    124  H   UNL     1     140.931 162.763 189.777  0.00  0.00    +0.210 HD
ENDBRANCH   8 123
BRANCH  15 125
ATOM    125  O   UNL     1     145.958 167.490 185.994  0.00  0.00    -0.379 OA
BRANCH 125 126
ATOM    126  C   UNL     1     145.724 166.992 184.683  0.00  0.00    +0.037 C 
ATOM    127  H   UNL     1     146.643 167.005 184.089  0.00  0.00    +0.052 HD
ATOM    128  H   UNL     1     145.385 165.956 184.769  0.00  0.00    +0.052 HD
ATOM    129  H   UNL     1     144.938 167.561 184.180  0.00  0.00    +0.052 HD
ENDBRANCH 125 126
ENDBRANCH  15 125
TORSDOF 27
ENDMDL
